!-Generator IDFEditor 1.51
!-Option SortedOrder

!-NOTE: All comments with '!-' are ignored by the IDFEditor and are generated automatically.
!-      Use '!' comments if they need to be retained when using the IDFEditor.


!-   ===========  ALL OBJECTS IN CLASS: VERSION ===========

!The DOE Prototype Building Models were developed by Pacific Northwest National Laboratory (PNNL), under contract with the U.S.
!Department of Energy (DOE).  These building models were derived from DOE's Commercial Reference Building Models with modifications
!based on input from the ASHRAE Standard 90.1 committee, the Advanced Energy Design Guide series, and building industry experts. The
!prototypes models were developed to quantify energy saving impacts from newly published editions of ASHRAE Standard 90.1, 189.1, IECC,
!and other energy codes and standards.  The basic building descriptions can be found in the Scorecards posted at www.energycodes.gov
!website. The recommended citation of the prototype models is
!
!DOE and PNNL. 2020. Commercial Prototype Building Models, Richland, WA, Pacific Northwest National Laboratory. Available at https://www.energycodes.gov/development/commercial/prototype_models.
!
!Detailed descriptions of the prototype model development and addenda modeling strategies can be found in the following  reports:
!DOE, 2020. Preliminary Energy Savings Analysis: ANSI/ASHRAE/IES Standard 90.1-2019. Report prepared by Zhang, J., M. Rosenberg, J.
!Lerond, Y. Xie, Nambia, C., Y. Chen, R. Hart, M. Halverson, D. Maddox, and S. Goel, Richland, WA, Pacific Northwest National Laboratory.
!
!Zhang, J., Y. Chen, Y. Xie, M. Rosenberg, R. Hart. Energy and Energy Cost Savings Analysis of the 2018 IECC for Commercial Buildings.
!2018. PNNL-28125. Richland, WA: Pacific Northwest National Laboratory.
!
!DOE. 2017. Energy Savings Analysis: ANSI/ASHRAE/IES Standard 90.1-2016. Prepared by Athalye, R.A, M.A. Halverson, M.I. Rosenberg, B. Liu,
!J. Zhang, R. Hart, V.V. Mendon, S. Goel, Y. Chen, Y. Xie, and M. Zhao, Richland, WA, Pacific Northwest National Laboratory. https://www.energycodes.gov/sites/default/files/documents/02202018_Standard_90.1-2016_Determination_TSD.pdf.
!
!Zhang, J., Y. Xie, R.A. Athalye, J. Zhuge, M. Rosenberg, R. Hart, and B. Liu. Energy and Energy Cost Savings Analysis of the 2015 IECC
!for Commercial Buildings. 2015. PNNL-24269 Rev. 1. Richland, WA: Pacific Northwest National
!Laboratory. https://www.energycodes.gov/sites/default/files/documents/2015_IECC_Commercial_Analysis.pdf.
!
!Halverson M.A., M.I. Rosenberg, W. Wang, J. Zhang, V.V. Mendon, R.A. Athalye, Y. Xie, R. Hart, S. Goel, 2014. ANSI/ASHRAE/IES Standard
!90.1-2013 Determination of Energy Savings: Quantitative Analysis, PNNL-23479. Richland, WA: Pacific Northwest National Laboratory. https://www.energycodes.gov/sites/default/files/documents/901-2013_finalCommercialDeterminationQuantitativeAnalysis_TSD_0.pdf.
!
!Goel S., R.A. Athalye, W. Wang, J. Zhang, M.I. Rosenberg, Y. Xie, and R. Hart, et al. 2014. Enhancements to ASHRAE Standard 90.1
!Prototype Building Models. PNNL-23269. Richland, WA: Pacific Northwest National Laboratory. https://www.pnnl.gov/main/publications/external/technical_reports/PNNL-23269.pdf.
!
!Zhang J., R.A. Athalye, R. Hart, M.I. Rosenberg, Y. Xie, S. Goel, and V.V. Mendon, et al. 2013. Energy and Energy Cost Savings Analysis
!of the IECC for Commercial Buildings. PNNL-22760. Richland, WA: Pacific Northwest National Laboratory. http://www.pnnl.gov/main/publications/external/technical_reports/PNNL-22760.pdf.
!
!Thornton B.A., M.I. Rosenberg, E.E. Richman, W. Wang, Y. Xie, J. Zhang, H. Cho, VV Mendon, R.A. Athalye, and B. Liu. 2011. Achieving
!the 30% Goal: Energy and Cost Savings Analysis of ASHRAE Standard 90.1-2010. PNNL-20405. Richland, WA: Pacific Northwest National
!Laboratory.  https://www.energycodes.gov/sites/default/files/documents/BECP_Energy_Cost_Savings_STD2010_May2011_v00.pdf.
!
!
! WeatherFile:  USA_NY_New.York-John.F.Kennedy.Intl.AP.744860_TMY3.epw
! BEGIN ECONOMIZER MAP
! Economizer Name, DX COIL Name
! VAV_POD_1_OA_Controller, VAV_POD_1_CoolC DXCoil
! VAV_POD_2_OA_Controller, VAV_POD_2_CoolC DXCoil
! VAV_POD_3_OA_Controller, VAV_POD_3_CoolC DXCoil
! VAV_OTHER_OA_Controller, VAV_OTHER_CoolC DXCoil
! PSZ-AC_2:5_OA_Controller, PSZ-AC_2:5_Unitary_Package_CoolCoil
! PSZ-AC_1:6_OA_Controller, PSZ-AC_1:6_Unitary_Package_CoolCoil
! PSZ-AC_2:7_OA_Controller, PSZ-AC_2:7_Unitary_Package_CoolCoil
! END ECONOMIZER MAP
!
!
! BEGIN EMS PROGRAM MAP
! EMS PROGRAM, DX COIL Name
! PSZ-AC_2:5, PSZ-AC_2:5_UNITARY_PACKAGE_COOLCOIL
! PSZ-AC_1:6, PSZ-AC_1:6_UNITARY_PACKAGE_COOLCOIL
! PSZ-AC_2:7, PSZ-AC_2:7_UNITARY_PACKAGE_COOLCOIL
! END EMS PROGRAM MAP
! GPARM parameters as input:
!    Case = ASHRAE901_SchoolPrimary_STD2019_NewYork
!    SelectedCase =
!    ground_tempt = National_SchoolPrimary_ASHRAE901_STD2016_Zone4A_nonres_NY-NewYork-NY.gtp
!    avg_oa_tempt_ip = 54.44
!    maxdiff_oa_tempt_ip = 45.36
!    ext_wall_type = SteelFramedWall
!    nonres_ext_wall_ufactor = 0.363408832
!    roof_type = LightweightRoof
!    nonres_roof_ufactor = 0.181704416
!    nonres_window =
!    nonres_skylight =
!    daylighting_control = yes
!    sidelighting_control = yes_AY
!    roof_emissivity = 0.9
!    roof_solar_absorp = 0.77
!    LPD_classroom = 7.642376396
!    LPD_corridor = 4.413203271
!    LPD_lobby = 9.04168475
!    LPD_computer_room = 7.642376396
!    LPD_mechanical = 10.2257149
!    LPD_bath = 6.781263563
!    LPD_office = 7.965293709
!    LPD_gym = 9.687519375
!    LPD_kitchen = 11.73266235
!    LPD_cafeteria = 4.305564167
!    LPD_library = 8.934045646
!    exterior_lights_watts = 0
!    exterior_lights_watts_a = 150.48
!    exterior_lights_watts_b = 1645.9
!    economizer = DifferentialDryBulb
!    skip_economizer_control = No
!    cc_sa_humidity = 0.0085
!    damper_sch = MinOA_MotorizedDamper_Sched
!    OA_classroom = 0.001879482
!    OA_corridor = 0.000304781
!    OA_lobby = 0.000304781
!    OA_computer_room = 0.001879482
!    OA_mechanical = 0
!    OA_bath = 0
!    OA_office = 0.000431773
!    OA_gym = 0.001523905
!    OA_kitchen = 0.001178183
!    OA_cafeteria = 0.004724104
!    OA_library = 0.000863546
!    PSZ_AC_2_7_DCV = No
!    OA_cafeteria_per_area = 0.000914343
!    OA_cafeteria_per_person = 0.003539405
!    vav_pod_1_dcv = No
!    vav_pod_2_dcv = No
!    vav_pod_3_dcv = No
!    oa_classroom_per_person = 0.00472
!    oa_classroom_per_area = 0.00060972
!    Gym_SZ_VAV = No
!    Kitchen_SZ_VAV = No
!    Cafeteria_SZ_VAV = No
!    avg_oa_tempt = 12.46666667
!    maxdiff_oa_tempt = 25.2
!    infil = 0.00056896
!    SAT_reset_switch = Yes
!    SAT_reset_switch_VAV_OTHER = Yes
!    SAT_reset_T = 15.6
!    door_infil = 3.031315581
!    frac_ofpk = 0.131
!    VAV_Pod_1_ERV = Yes
!    VAV_Pod_2_ERV = Yes
!    VAV_Pod_3_ERV = Yes
!    PSZ_AC_2_5_ERV = Yes
!    PSZ_AC_2_7_ERV = Yes
!    economizer_lockout = LockoutWithHeating
!    economizer_lockout_vav = LockoutWithHeating
!    Transfer_Air = all_exhaust
!    add_ck_vav_other = Yes
!    add_ck_vav_pod_1 = Yes
!    add_ck_vav_pod_2 = Yes
!    add_ck_vav_pod_3 = Yes
!    bath_zn_1_flr_1_mdp = 0.2
!    computer_class_zn_1_flr_1_mdp = 0.2
!    library_media_center_zn_1_flr_1_mdp = 0.2
!    lobby_zn_1_flr_1_mdp = 0.2
!    main_corridor_zn_1_flr_1_mdp = 0.2
!    mech_zn_1_flr_1_mdp = 0.2
!    offices_zn_1_flr_1_mdp = 0.2
!    corner_class_1_pod_1_zn_1_flr_1_mdp = 0.5
!    corner_class_2_pod_1_zn_1_flr_1_mdp = 0.5
!    corridor_pod_1_zn_1_flr_1_mdp = 0.2
!    mult_class_1_pod_1_zn_1_flr_1_mdp = 0.5
!    mult_class_2_pod_1_zn_1_flr_1_mdp = 0.5
!    corner_class_1_pod_2_zn_1_flr_1_mdp = 0.5
!    corner_class_2_pod_2_zn_1_flr_1_mdp = 0.5
!    corridor_pod_2_zn_1_flr_1_mdp = 0.2
!    mult_class_1_pod_2_zn_1_flr_1_mdp = 0.5
!    mult_class_2_pod_2_zn_1_flr_1_mdp = 0.5
!    corner_class_1_pod_3_zn_1_flr_1_mdp = 0.5
!    corner_class_2_pod_3_zn_1_flr_1_mdp = 0.5
!    corridor_pod_3_zn_1_flr_1_mdp = 0.2
!    mult_class_1_pod_3_zn_1_flr_1_mdp = 0.5
!    mult_class_2_pod_3_zn_1_flr_1_mdp = 0.5
!    vav_other_oaf = autosize
!    vav_pod_1_oaf = autosize
!    vav_pod_2_oaf = autosize
!    vav_pod_3_oaf = autosize
!    frame_width = 0
!    frame_cond = 0
!    frame = Skylight_Frame
!    BLDG_EQUIP_SCH = BLDG_EQUIP_SCH_ADV
!    addendum_cd = 2016AS
!    pv_generator = no
!    pv_surface_area = 0
!    STD189_overhang = no
!    swh_et = 0.80512672
!    swh_ua = 9.643286505
!    ext_lgt_sch = Exterior_Lgt_ALWAYS_ON
!    VAV_OTHER_ERV = Yes
!    VAV_Pod_1_ERV_power = 2177.31575
!    VAV_Pod_2_ERV_power = 2177.31575
!    VAV_Pod_3_ERV_power = 1886.01075
!    PSZ_AC_2_5_ERV_power = 440.341525
!    PSZ_AC_2_7_ERV_power = 1117.704575
!    VAV_OTHER_ERV_power = 1062.1055
!    heating_damper_act = ReverseWithLimits
!    LTG_SCH_SET = LTG_SET_STD2013
!    transformer_size = 112500
!    transformer_eff = 0.987
!    freezer_power = 555
!    refrigerator_power = 313.3
!    HtgSetP_Sch = HTGSETP_SCH_NO_OPTIMUM
!    ClgSetP_Sch = CLGSETP_SCH_NO_OPTIMUM
!    wwr = 0.35
!    swh_et_booster = 1
!    swh_ua_booster = 1.053159296
!    pipe_heat_loss = 970.33
!    evap_fan_power_case1 = 19.51428571
!    evap_fan_power_case2 = 15.71428571
!    walkin_lighting_sch = walkin_occ_lght_sch
!    fan_total_eff = 0.385
!    kitchen_exh_fan_power = 762
!    skip_EMSprogram = no
!    HtgSetP_Sch_VAV_POD_1 = HTGSETP_SCH_YES_OPTIMUM
!    ClgSetP_Sch_VAV_POD_1 = CLGSETP_SCH_YES_OPTIMUM
!    HtgSetP_Sch_VAV_POD_2 = HTGSETP_SCH_YES_OPTIMUM
!    ClgSetP_Sch_VAV_POD_2 = CLGSETP_SCH_YES_OPTIMUM
!    HtgSetP_Sch_VAV_POD_3 = HTGSETP_SCH_YES_OPTIMUM
!    ClgSetP_Sch_VAV_POD_3 = CLGSETP_SCH_YES_OPTIMUM
!    HtgSetP_Sch_VAV_OTHER = HTGSETP_SCH_YES_OPTIMUM
!    ClgSetP_Sch_VAV_OTHER = CLGSETP_SCH_YES_OPTIMUM
!    OA_BASED_OPTIMUM_START_EMS = yes
!    OPTIMUM_START_SF_DEPENDENT_EMS = no
!    Wfile_TMY3 = USA_NY_New.York-John.F.Kennedy.Intl.AP.744860_TMY3.epw
!    loadProfile = No
!    BoilerAM = Yes
!    receptacle_ctrl_occ_reduction_frac = 0.930618629
!    receptacle_ctrl_unocc_reduction_frac = 0.779685327
!    SHW_Pump_Head = 29891
!    CodeName = ASHRAE90.1_STD2019
!    CZ_City_Old = Baltimore
!    CZ_Label = 4A
!    exterior_lights_watts_c = 584.3
!    Addendum_AH = Yes
!    LPD_Ctrl = 0.02
!    con_swingdoor_r = 0.475963827
!    HOTW_PumpCurve_flag = pump_ride_on_curve
!    office_standby_mode = Yes
!    nonres_window_u_factor = 0.37
!    nonres_window_shgc = 0.36
!    nonresLSG = 1.1
!    nonres_skylight_u_factor = 0.5
!    nonres_skylight_shgc = 0.4
!    nonresskyltLSG = 1
!    AnalysisPurpose = ProgressIndicator
!    AnalysisCodeName = ASHRAE901
!    AnalysisCodeYear = 2019
!    AnalysisAmendment = NoneAmend
!    AnalysisPrototype = SchoolPrimary
!    AnalysisScope = National
!    AnalysisState = National
!    AnalysisClimateZone = 4A
!    AnalysisCity = USA_NY_NewYork
!    var_Ffactor_IP = 0.52
!    var_Cfactor_IP = 0.119
!    Bathrooms_ZN_SWH_flow = 2.63889e-07
!    cop_walkin_freezer = 2.32
!    cop_walkin_cooler = 6.98
! specify overhang_pf for 1891 codes
Version,
    9.3;                     !- Version Identifier


!-   ===========  ALL OBJECTS IN CLASS: SIMULATIONCONTROL ===========

SimulationControl,
    Yes,                     !- Do Zone Sizing Calculation
    Yes,                     !- Do System Sizing Calculation
    Yes,                     !- Do Plant Sizing Calculation
    No,                      !- Run Simulation for Sizing Periods
    YES;                     !- Run Simulation for Weather File Run Periods


!-   ===========  ALL OBJECTS IN CLASS: BUILDING ===========

Building,
    SchoolPrimary,           !- Name
    0.0000,                  !- North Axis {deg}
    City,                    !- Terrain
    0.0400,                  !- Loads Convergence Tolerance Value {W}
    0.2000,                  !- Temperature Convergence Tolerance Value {deltaC}
    FullInteriorAndExterior, !- Solar Distribution
    25,                      !- Maximum Number of Warmup Days
    6;                       !- Minimum Number of Warmup Days


!-   ===========  ALL OBJECTS IN CLASS: SHADOWCALCULATION ===========

ShadowCalculation,
    PolygonClipping,         !- Shading Calculation Method
    Periodic,                !- Shading Calculation Update Frequency Method
    30,                      !- Shading Calculation Update Frequency
    15000;                   !- Maximum Figures in Shadow Overlap Calculations


!-   ===========  ALL OBJECTS IN CLASS: SURFACECONVECTIONALGORITHM:INSIDE ===========

SurfaceConvectionAlgorithm:Inside,
    TARP;                    !- Algorithm


!-   ===========  ALL OBJECTS IN CLASS: SURFACECONVECTIONALGORITHM:OUTSIDE ===========

SurfaceConvectionAlgorithm:Outside,
    TARP;                    !- Algorithm


!-   ===========  ALL OBJECTS IN CLASS: HEATBALANCEALGORITHM ===========

HeatBalanceAlgorithm,
    ConductionTransferFunction,  !- Algorithm
    200.0000;                !- Surface Temperature Upper Limit {C}


!-   ===========  ALL OBJECTS IN CLASS: TIMESTEP ===========

Timestep,
    20;                      !- Number of Timesteps per Hour


!-   ===========  ALL OBJECTS IN CLASS: CONVERGENCELIMITS ===========

ConvergenceLimits,
    1,                       !- Minimum System Timestep {minutes}
    20;                      !- Maximum HVAC Iterations


!-   ===========  ALL OBJECTS IN CLASS: SITE:LOCATION ===========

! Site:Location and design-day objects created by:
! ../../_p.bin/ddy2idf /projects/bigsim/weather/EnergyPlus/tmy3.new/all/USA_NY_New.York-John.F.Kennedy.Intl.AP.744860_TMY3.ddy
!
Site:Location,
    New.York-John.F.Kennedy.Intl.AP_NY_USA WMO=744860,  !- Name
    40.66,                   !- Latitude {deg}
    -73.80,                  !- Longitude {deg}
    -5.00,                   !- Time Zone {hr}
    7.00;                    !- Elevation {m}


!-   ===========  ALL OBJECTS IN CLASS: SIZINGPERIOD:DESIGNDAY ===========

SizingPeriod:DesignDay,
    New.York-John.F.Kennedy.Intl.AP_NY_USA Ann Htg 99.6% Condns DB,  !- Name
    1,                       !- Month
    21,                      !- Day of Month
    WinterDesignDay,         !- Day Type
    -10.7,                   !- Maximum Dry-Bulb Temperature {C}
    0.0,                     !- Daily Dry-Bulb Temperature Range {deltaC}
    DefaultMultipliers,      !- Dry-Bulb Temperature Range Modifier Type
    ,                        !- Dry-Bulb Temperature Range Modifier Day Schedule Name
    Wetbulb,                 !- Humidity Condition Type
    -10.7,                   !- Wetbulb or DewPoint at Maximum Dry-Bulb {C}
    ,                        !- Humidity Condition Day Schedule Name
    ,                        !- Humidity Ratio at Maximum Dry-Bulb {kgWater/kgDryAir}
    ,                        !- Enthalpy at Maximum Dry-Bulb {J/kg}
    ,                        !- Daily Wet-Bulb Temperature Range {deltaC}
    101241.,                 !- Barometric Pressure {Pa}
    7.5,                     !- Wind Speed {m/s}
    320,                     !- Wind Direction {deg}
    No,                      !- Rain Indicator
    No,                      !- Snow Indicator
    No,                      !- Daylight Saving Time Indicator
    ASHRAEClearSky,          !- Solar Model Indicator
    ,                        !- Beam Solar Day Schedule Name
    ,                        !- Diffuse Solar Day Schedule Name
    ,                        !- ASHRAE Clear Sky Optical Depth for Beam Irradiance (taub) {dimensionless}
    ,                        !- ASHRAE Clear Sky Optical Depth for Diffuse Irradiance (taud) {dimensionless}
    0.00;                    !- Sky Clearness

SizingPeriod:DesignDay,
    New.York-John.F.Kennedy.Intl.AP_NY_USA Ann Clg .4% Condns DB=>MWB,  !- Name
    7,                       !- Month
    21,                      !- Day of Month
    SummerDesignDay,         !- Day Type
    32.1,                    !- Maximum Dry-Bulb Temperature {C}
    7.4,                     !- Daily Dry-Bulb Temperature Range {deltaC}
    DefaultMultipliers,      !- Dry-Bulb Temperature Range Modifier Type
    ,                        !- Dry-Bulb Temperature Range Modifier Day Schedule Name
    Wetbulb,                 !- Humidity Condition Type
    23.1,                    !- Wetbulb or DewPoint at Maximum Dry-Bulb {C}
    ,                        !- Humidity Condition Day Schedule Name
    ,                        !- Humidity Ratio at Maximum Dry-Bulb {kgWater/kgDryAir}
    ,                        !- Enthalpy at Maximum Dry-Bulb {J/kg}
    ,                        !- Daily Wet-Bulb Temperature Range {deltaC}
    101241.,                 !- Barometric Pressure {Pa}
    5.6,                     !- Wind Speed {m/s}
    230,                     !- Wind Direction {deg}
    No,                      !- Rain Indicator
    No,                      !- Snow Indicator
    No,                      !- Daylight Saving Time Indicator
    ASHRAETau,               !- Solar Model Indicator
    ,                        !- Beam Solar Day Schedule Name
    ,                        !- Diffuse Solar Day Schedule Name
    0.541,                   !- ASHRAE Clear Sky Optical Depth for Beam Irradiance (taub) {dimensionless}
    1.800;                   !- ASHRAE Clear Sky Optical Depth for Diffuse Irradiance (taud) {dimensionless}


!-   ===========  ALL OBJECTS IN CLASS: RUNPERIOD ===========

RunPeriod,
    RUNPERIOD 1,             !- Name
    6,                       !- Begin Month
    1,                       !- Begin Day of Month
    ,                        !- Begin Year
    10,                      !- End Month
    4,                       !- End Day of Month
    ,                        !- End Year
    Sunday,                  !- Day of Week for Start Day
    No,                      !- Use Weather File Holidays and Special Days
    No,                      !- Use Weather File Daylight Saving Period
    No,                      !- Apply Weekend Holiday Rule
    Yes,                     !- Use Weather File Rain Indicators
    Yes;                     !- Use Weather File Snow Indicators


!-   ===========  ALL OBJECTS IN CLASS: RUNPERIODCONTROL:SPECIALDAYS ===========

RunPeriodControl:SpecialDays,
    New Years Day,           !- Name
    January 1,               !- Start Date
    1,                       !- Duration {days}
    Holiday;                 !- Special Day Type

RunPeriodControl:SpecialDays,
    Veterans Day,            !- Name
    November 11,             !- Start Date
    1,                       !- Duration {days}
    Holiday;                 !- Special Day Type

RunPeriodControl:SpecialDays,
    Christmas,               !- Name
    December 25,             !- Start Date
    1,                       !- Duration {days}
    Holiday;                 !- Special Day Type

RunPeriodControl:SpecialDays,
    Independence Day,        !- Name
    July 4,                  !- Start Date
    1,                       !- Duration {days}
    Holiday;                 !- Special Day Type

RunPeriodControl:SpecialDays,
    MLK Day,                 !- Name
    3rd Monday in January,   !- Start Date
    1,                       !- Duration {days}
    Holiday;                 !- Special Day Type

RunPeriodControl:SpecialDays,
    Presidents Day,          !- Name
    3rd Monday in February,  !- Start Date
    1,                       !- Duration {days}
    Holiday;                 !- Special Day Type

RunPeriodControl:SpecialDays,
    Memorial Day,            !- Name
    Last Monday in May,      !- Start Date
    1,                       !- Duration {days}
    Holiday;                 !- Special Day Type

RunPeriodControl:SpecialDays,
    Labor Day,               !- Name
    1st Monday in September, !- Start Date
    1,                       !- Duration {days}
    Holiday;                 !- Special Day Type

RunPeriodControl:SpecialDays,
    Columbus Day,            !- Name
    2nd Monday in October,   !- Start Date
    1,                       !- Duration {days}
    Holiday;                 !- Special Day Type

RunPeriodControl:SpecialDays,
    Thanksgiving,            !- Name
    4th Thursday in November,!- Start Date
    1,                       !- Duration {days}
    Holiday;                 !- Special Day Type


!-   ===========  ALL OBJECTS IN CLASS: RUNPERIODCONTROL:DAYLIGHTSAVINGTIME ===========

RunPeriodControl:DaylightSavingTime,
    2nd Sunday in March,     !- Start Date
    1st Sunday in November;  !- End Date


!-   ===========  ALL OBJECTS IN CLASS: SITE:GROUNDTEMPERATURE:BUILDINGSURFACE ===========

Site:GroundTemperature:BuildingSurface,
    19.713,                  !- January Ground Temperature {C}
    19.665,                  !- February Ground Temperature {C}
    19.706,                  !- March Ground Temperature {C}
    19.745,                  !- April Ground Temperature {C}
    20.486,                  !- May Ground Temperature {C}
    22.110,                  !- June Ground Temperature {C}
    22.459,                  !- July Ground Temperature {C}
    22.554,                  !- August Ground Temperature {C}
    22.169,                  !- September Ground Temperature {C}
    20.607,                  !- October Ground Temperature {C}
    20.047,                  !- November Ground Temperature {C}
    19.805;                  !- December Ground Temperature {C}


!-   ===========  ALL OBJECTS IN CLASS: SITE:GROUNDTEMPERATURE:FCFACTORMETHOD ===========

!
!
!
! Site:GroundTemperature:BuildingSurface,
!     19.713,                  !- January Ground Temperature {C}
!     19.665,                  !- February Ground Temperature {C}
!     19.706,                  !- March Ground Temperature {C}
!     19.745,                  !- April Ground Temperature {C}
!     20.486,                  !- May Ground Temperature {C}
!     22.110,                  !- June Ground Temperature {C}
!     22.459,                  !- July Ground Temperature {C}
!     22.554,                  !- August Ground Temperature {C}
!     22.169,                  !- September Ground Temperature {C}
!     20.607,                  !- October Ground Temperature {C}
!     20.047,                  !- November Ground Temperature {C}
!     19.805;                  !- December Ground Temperature {C}
Site:GroundTemperature:FCfactorMethod,
    14.0,                    !- January Ground Temperature {C}
    7.3,                     !- February Ground Temperature {C}
    3.3,                     !- March Ground Temperature {C}
    1.2,                     !- April Ground Temperature {C}
    -0.2,                    !- May Ground Temperature {C}
    5.6,                     !- June Ground Temperature {C}
    10.9,                    !- July Ground Temperature {C}
    16.1,                    !- August Ground Temperature {C}
    21.7,                    !- September Ground Temperature {C}
    25.0,                    !- October Ground Temperature {C}
    24.8,                    !- November Ground Temperature {C}
    19.9;                    !- December Ground Temperature {C}


!-   ===========  ALL OBJECTS IN CLASS: SITE:WATERMAINSTEMPERATURE ===========

Site:WaterMainsTemperature,
    Correlation,             !- Calculation Method
    ,                        !- Temperature Schedule Name
    12.4666666666667,        !- Annual Average Outdoor Air Temperature {C}
    25.2;                    !- Maximum Difference In Monthly Average Outdoor Air Temperatures {deltaC}


!-   ===========  ALL OBJECTS IN CLASS: SCHEDULETYPELIMITS ===========

ScheduleTypeLimits,
    Any Number;              !- Name

ScheduleTypeLimits,
    Fraction,                !- Name
    0.0,                     !- Lower Limit Value
    1.0,                     !- Upper Limit Value
    CONTINUOUS;              !- Numeric Type

ScheduleTypeLimits,
    Temperature,             !- Name
    -60,                     !- Lower Limit Value
    200,                     !- Upper Limit Value
    CONTINUOUS;              !- Numeric Type

ScheduleTypeLimits,
    On/Off,                  !- Name
    0,                       !- Lower Limit Value
    1,                       !- Upper Limit Value
    DISCRETE;                !- Numeric Type

ScheduleTypeLimits,
    Control Type,            !- Name
    0,                       !- Lower Limit Value
    4,                       !- Upper Limit Value
    DISCRETE;                !- Numeric Type

ScheduleTypeLimits,
    Humidity,                !- Name
    10,                      !- Lower Limit Value
    90,                      !- Upper Limit Value
    CONTINUOUS;              !- Numeric Type

ScheduleTypeLimits,
    Number;                  !- Name


!-   ===========  ALL OBJECTS IN CLASS: SCHEDULE:COMPACT ===========

Schedule:Compact,
    RADHEATHIGHWATERTEMP,    !- Name
    TEMPERATURE,             !- Schedule Type Limits Name
    Through: 12/31,          !- Field 1
    For: Alldays,            !- Field 2
    Until: 24:00,            !- Field 3
    50.00;                   !- Field 4

Schedule:Compact,
    RADHEATLOWWATERTEMP,     !- Name
    TEMPERATURE,             !- Schedule Type Limits Name
    Through: 12/31,          !- Field 1
    For: Alldays,            !- Field 2
    Until: 24:00,            !- Field 3
    30.00;                   !- Field 4

Schedule:Compact,
    RADHEATHIGHCONTROLTEMP,  !- Name
    TEMPERATURE,             !- Schedule Type Limits Name
    Through: 12/31,          !- Field 1
    For: Alldays,            !- Field 2
    Until: 24:00,            !- Field 3
    19.00;                   !- Field 4

Schedule:Compact,
    RADHEATLOWCONTROLTEMP,   !- Name
    TEMPERATURE,             !- Schedule Type Limits Name
    Through: 12/31,          !- Field 1
    For: Alldays,            !- Field 2
    Until: 24:00,            !- Field 3
    17.00;                   !- Field 4

Schedule:Compact,
    RADHEATHIGHCONTROLTEMP_Test,  !- Name
    TEMPERATURE,             !- Schedule Type Limits Name
    Through: 12/31,          !- Field 1
    For: Alldays,            !- Field 2
    Until: 24:00,            !- Field 3
    22.00;                   !- Field 4

Schedule:Compact,
    RADHEATLOWCONTROLTEMP_Test,  !- Name
    TEMPERATURE,             !- Schedule Type Limits Name
    Through: 12/31,          !- Field 1
    For: Alldays,            !- Field 2
    Until: 24:00,            !- Field 3
    17.00;                   !- Field 4

Schedule:Compact,
    RADCOOLHIGHWATERTEMP,    !- Name
    TEMPERATURE,             !- Schedule Type Limits Name
    Through: 12/31,          !- Field 1
    For: Alldays,            !- Field 2
    Until: 24:00,            !- Field 3
    12.00;                   !- Field 4

Schedule:Compact,
    RADCOOLLOWWATERTEMP,     !- Name
    TEMPERATURE,             !- Schedule Type Limits Name
    Through: 12/31,          !- Field 1
    For: Alldays,            !- Field 2
    Until: 24:00,            !- Field 3
    7.00;                    !- Field 4

Schedule:Compact,
    RADCOOLHIGHCONTROLTEMP,  !- Name
    TEMPERATURE,             !- Schedule Type Limits Name
    Through: 12/31,          !- Field 1
    For: Alldays,            !- Field 2
    Until: 24:00,            !- Field 3
    25.00;                   !- Field 4

Schedule:Compact,
    RADCOOLLOWCONTROLTEMP,   !- Name
    TEMPERATURE,             !- Schedule Type Limits Name
    Through: 12/31,          !- Field 1
    For: Alldays,            !- Field 2
    Until: 24:00,            !- Field 3
    23.00;                   !- Field 4

Schedule:Compact,
    RADCOOLHIGHCONTROLTEMP_Test,  !- Name
    TEMPERATURE,             !- Schedule Type Limits Name
    Through: 12/31,          !- Field 1
    For: Alldays,            !- Field 2
    Until: 24:00,            !- Field 3
    24.00;                   !- Field 4

Schedule:Compact,
    RADCOOLLOWCONTROLTEMP_Test,  !- Name
    TEMPERATURE,             !- Schedule Type Limits Name
    Through: 12/31,          !- Field 1
    For: Alldays,            !- Field 2
    Until: 24:00,            !- Field 3
    22.00;                   !- Field 4

Schedule:Compact,
    BLDG_LIGHT_BATH_SCH,     !- Name
    Fraction,                !- Schedule Type Limits Name
    Through: 6/30,           !- Field 1
    For: Weekdays,           !- Field 2
    Until: 7:00,             !- Field 3
    0.1773,                  !- Field 4
    Until: 8:00,             !- Field 5
    0.9,                     !- Field 6
    Until: 21:00,            !- Field 7
    0.594,                   !- Field 8
    Until: 24:00,            !- Field 9
    0.1773,                  !- Field 10
    For: SummerDesignDay,    !- Field 11
    Until: 24:00,            !- Field 12
    1,                       !- Field 13
    For: WinterDesignDay,    !- Field 14
    Until: 24:00,            !- Field 15
    0,                       !- Field 16
    For: WeekEnds Holidays AllOtherDays,  !- Field 17
    Until: 24:00,            !- Field 18
    0.1773,                  !- Field 19
    Through: 9/1,            !- Field 20
    For: Weekdays,           !- Field 21
    Until: 8:00,             !- Field 22
    0.1773,                  !- Field 23
    Until: 20:00,            !- Field 24
    0.33,                    !- Field 25
    Until: 21:00,            !- Field 26
    0.117018,                !- Field 27
    Until: 24:00,            !- Field 28
    0.1773,                  !- Field 29
    For: SummerDesignDay,    !- Field 30
    Until: 24:00,            !- Field 31
    1,                       !- Field 32
    For: WinterDesignDay,    !- Field 33
    Until: 24:00,            !- Field 34
    0,                       !- Field 35
    For: WeekEnds Holidays AllOtherDays,  !- Field 36
    Until: 24:00,            !- Field 37
    0.1773,                  !- Field 38
    Through: 12/31,          !- Field 39
    For: Weekdays,           !- Field 40
    Until: 7:00,             !- Field 41
    0.1773,                  !- Field 42
    Until: 8:00,             !- Field 43
    0.9,                     !- Field 44
    Until: 21:00,            !- Field 45