!-Generator IDFEditor 1.51
!-Option SortedOrder

!-NOTE: All comments with '!-' are ignored by the IDFEditor and are generated automatically.
!-      Use '!' comments if they need to be retained when using the IDFEditor.


!-   ===========  ALL OBJECTS IN CLASS: VERSION ===========

Version,
    9.3;                     !- Version Identifier


!-   ===========  ALL OBJECTS IN CLASS: SIMULATIONCONTROL ===========

SimulationControl,
    Yes,                     !- Do Zone Sizing Calculation
    No,                      !- Do System Sizing Calculation
    No,                      !- Do Plant Sizing Calculation
    No,                      !- Run Simulation for Sizing Periods
    Yes;                     !- Run Simulation for Weather File Run Periods


!-   ===========  ALL OBJECTS IN CLASS: BUILDING ===========

Building,
    Untitled,                !- Name
    0.0,                     !- North Axis {deg}
    City,                    !- Terrain
    0.04,                    !- Loads Convergence Tolerance Value {W}
    0.4,                     !- Temperature Convergence Tolerance Value {deltaC}
    FullInteriorAndExterior, !- Solar Distribution
    25,                      !- Maximum Number of Warmup Days
    ;                        !- Minimum Number of Warmup Days


!-   ===========  ALL OBJECTS IN CLASS: SURFACECONVECTIONALGORITHM:INSIDE ===========

SurfaceConvectionAlgorithm:Inside,
    TARP;                    !- Algorithm


!-   ===========  ALL OBJECTS IN CLASS: SURFACECONVECTIONALGORITHM:OUTSIDE ===========

SurfaceConvectionAlgorithm:Outside,
    DOE-2;                   !- Algorithm


!-   ===========  ALL OBJECTS IN CLASS: HEATBALANCEALGORITHM ===========

HeatBalanceAlgorithm,
    ConductionFiniteDifference,  !- Algorithm
    ,                        !- Surface Temperature Upper Limit {C}
    1E-68,                   !- Minimum Surface Convection Heat Transfer Coefficient Value {W/m2-K}
    1000;                    !- Maximum Surface Convection Heat Transfer Coefficient Value {W/m2-K}


!-   ===========  ALL OBJECTS IN CLASS: HEATBALANCESETTINGS:CONDUCTIONFINITEDIFFERENCE ===========

HeatBalanceSettings:ConductionFiniteDifference,
    FullyImplicitFirstOrder, !- Difference Scheme
    0.1,                     !- Space Discretization Constant
    0.01,                    !- Relaxation Factor
    0.0000001;               !- Inside Face Surface Temperature Convergence Criteria


!-   ===========  ALL OBJECTS IN CLASS: TIMESTEP ===========

Timestep,
    20;                      !- Number of Timesteps per Hour


!-   ===========  ALL OBJECTS IN CLASS: SITE:LOCATION ===========

Site:Location,
    OSLO/FORNEBU_NOR Design_Conditions,  !- Name
    59.9,                    !- Latitude {deg}
    10.62,                   !- Longitude {deg}
    1.0,                     !- Time Zone {hr}
    17.00;                   !- Elevation {m}


!-   ===========  ALL OBJECTS IN CLASS: SIZINGPERIOD:DESIGNDAY ===========

SizingPeriod:DesignDay,
    OSLO/FORNEBU Ann Clg 2% Condns Enth=>MDB,  !- Name
    7,                       !- Month
    21,                      !- Day of Month
    SummerDesignDay,         !- Day Type
    21.3,                    !- Maximum Dry-Bulb Temperature {C}
    8.8,                     !- Daily Dry-Bulb Temperature Range {deltaC}
    DefaultMultipliers,      !- Dry-Bulb Temperature Range Modifier Type
    ,                        !- Dry-Bulb Temperature Range Modifier Day Schedule Name
    Enthalpy,                !- Humidity Condition Type
    ,                        !- Wetbulb or DewPoint at Maximum Dry-Bulb {C}
    ,                        !- Humidity Condition Day Schedule Name
    ,                        !- Humidity Ratio at Maximum Dry-Bulb {kgWater/kgDryAir}
    48100.0,                 !- Enthalpy at Maximum Dry-Bulb {J/kg}
    ,                        !- Daily Wet-Bulb Temperature Range {deltaC}
    101121.,                 !- Barometric Pressure {Pa}
    3.2,                     !- Wind Speed {m/s}
    170,                     !- Wind Direction {deg}
    No,                      !- Rain Indicator
    No,                      !- Snow Indicator
    No,                      !- Daylight Saving Time Indicator
    ASHRAETau,               !- Solar Model Indicator
    ,                        !- Beam Solar Day Schedule Name
    ,                        !- Diffuse Solar Day Schedule Name
    0.402,                   !- ASHRAE Clear Sky Optical Depth for Beam Irradiance (taub) {dimensionless}
    2.166;                   !- ASHRAE Clear Sky Optical Depth for Diffuse Irradiance (taud) {dimensionless}


!-   ===========  ALL OBJECTS IN CLASS: RUNPERIOD ===========

RunPeriod,
    RUNPERIOD 1,             !- Name
    1,                       !- Begin Month
    14,                      !- Begin Day of Month
    2020,                    !- Begin Year
    1,                       !- End Month
    15,                      !- End Day of Month
    ,                        !- End Year
    Tuesday,                 !- Day of Week for Start Day
    Yes,                     !- Use Weather File Holidays and Special Days
    Yes,                     !- Use Weather File Daylight Saving Period
    No,                      !- Apply Weekend Holiday Rule
    Yes,                     !- Use Weather File Rain Indicators
    Yes;                     !- Use Weather File Snow Indicators


!-   ===========  ALL OBJECTS IN CLASS: RUNPERIODCONTROL:SPECIALDAYS ===========

RunPeriodControl:SpecialDays,
    New Years Day,           !- Name
    January 1,               !- Start Date
    1,                       !- Duration {days}
    Holiday;                 !- Special Day Type

RunPeriodControl:SpecialDays,
    Veterans Day,            !- Name
    November 11,             !- Start Date
    1,                       !- Duration {days}
    Holiday;                 !- Special Day Type

RunPeriodControl:SpecialDays,
    Christmas,               !- Name
    December 25,             !- Start Date
    1,                       !- Duration {days}
    Holiday;                 !- Special Day Type

RunPeriodControl:SpecialDays,
    Independence Day,        !- Name
    July 4,                  !- Start Date
    1,                       !- Duration {days}
    Holiday;                 !- Special Day Type

RunPeriodControl:SpecialDays,
    MLK Day,                 !- Name
    3rd Monday in January,   !- Start Date
    1,                       !- Duration {days}
    Holiday;                 !- Special Day Type

RunPeriodControl:SpecialDays,
    Presidents Day,          !- Name
    3rd Monday in February,  !- Start Date
    1,                       !- Duration {days}
    Holiday;                 !- Special Day Type

RunPeriodControl:SpecialDays,
    Memorial Day,            !- Name
    Last Monday in May,      !- Start Date
    1,                       !- Duration {days}
    Holiday;                 !- Special Day Type

RunPeriodControl:SpecialDays,
    Labor Day,               !- Name
    1st Monday in September, !- Start Date
    1,                       !- Duration {days}
    Holiday;                 !- Special Day Type

RunPeriodControl:SpecialDays,
    Columbus Day,            !- Name
    2nd Monday in October,   !- Start Date
    1,                       !- Duration {days}
    Holiday;                 !- Special Day Type

RunPeriodControl:SpecialDays,
    Thanksgiving,            !- Name
    4th Thursday in November,!- Start Date
    1,                       !- Duration {days}
    Holiday;                 !- Special Day Type


!-   ===========  ALL OBJECTS IN CLASS: RUNPERIODCONTROL:DAYLIGHTSAVINGTIME ===========

! Daylight Saving Period in US
RunPeriodControl:DaylightSavingTime,
    2nd Sunday in March,     !- Start Date
    1st Sunday in November;  !- End Date


!-   ===========  ALL OBJECTS IN CLASS: SCHEDULETYPELIMITS ===========

ScheduleTypeLimits,
    Any Number;              !- Name

ScheduleTypeLimits,
    Fraction,                !- Name
    0.0,                     !- Lower Limit Value
    1.0,                     !- Upper Limit Value
    CONTINUOUS;              !- Numeric Type

ScheduleTypeLimits,
    Temperature,             !- Name
    -60,                     !- Lower Limit Value
    200,                     !- Upper Limit Value
    CONTINUOUS;              !- Numeric Type

ScheduleTypeLimits,
    On/Off,                  !- Name
    0,                       !- Lower Limit Value
    1,                       !- Upper Limit Value
    DISCRETE;                !- Numeric Type

ScheduleTypeLimits,
    Control Type,            !- Name
    0,                       !- Lower Limit Value
    4,                       !- Upper Limit Value
    DISCRETE;                !- Numeric Type

ScheduleTypeLimits,
    Humidity,                !- Name
    10,                      !- Lower Limit Value
    90,                      !- Upper Limit Value
    CONTINUOUS;              !- Numeric Type

ScheduleTypeLimits,
    Number;                  !- Name

!
! -------------------------------------------------------------
! New objects created from ExpandObjects
! -------------------------------------------------------------
!
ScheduleTypeLimits,
    HVACTemplate Any Number; !- Name


!-   ===========  ALL OBJECTS IN CLASS: SCHEDULE:DAY:LIST ===========

Schedule:Day:List,
    inside face daily,       !- Name
    Number,                  !- Schedule Type Limits Name
    No,                      !- Interpolate to Timestep
    3,                       !- Minutes per Item
    25.02,                   !- Value 1
    25.02,                   !- N3
    25.02,                   !- N4
    25.02,                   !- N5
    25.02,                   !- N6
    25.02,                   !- N7
    25.02,                   !- N8
    25.02,                   !- N9
    25.02,                   !- N10
    25.02,                   !- N11
    25.02,                   !- N12
    25.02,                   !- N13
    25.02,                   !- N14
    25.02,                   !- N15
    25.02,                   !- N16
    25.02,                   !- N17
    25.02,                   !- N18
    25.02,                   !- N19
    25.02,                   !- N20
    25.02,                   !- N21
    25.02,                   !- N22
    25.02,                   !- N23
    25.02,                   !- N24
    25.02,                   !- N25
    25.02,                   !- N26
    25.02,                   !- N27
    25.02,                   !- N28
    25.02,                   !- N29
    25.02,                   !- N30
    25.02,                   !- N31
    25.02,                   !- N32
    25.02,                   !- N33
    25.02,                   !- N34
    25.02,                   !- N35
    25.02,                   !- N36
    25.02,                   !- N37
    25.02,                   !- N38
    25.02,                   !- N39
    25.02,                   !- N40
    25.02,                   !- N41
    25.02,                   !- N42
    25.02,                   !- N43
    25.02,                   !- N44
    25.02,                   !- N45
    25.02,                   !- N46
    25.02,                   !- N47
    25.02,                   !- N48
    25.02,                   !- N49
    25.02,                   !- N50
    25.02,                   !- N51
    25.02,                   !- N52
    25.02,                   !- N53
    25.02,                   !- N54
    25.02,                   !- N55
    25.02,                   !- N56
    25.02,                   !- N57
    25.02,                   !- N58
    25.02,                   !- N59
    25.02,                   !- N60
    25.02,                   !- N61
    25.02,                   !- N62
    25.02,                   !- N63
    25.02,                   !- N64
    25.02,                   !- N65
    25.02,                   !- N66
    25.02,                   !- N67
    25.02,                   !- N68
    25.02,                   !- N69
    25.02,                   !- N70
    25.02,                   !- N71
    25.02,                   !- N72
    25.02,                   !- N73
    25.02,                   !- N74
    25.02,                   !- N75
    25.02,                   !- N76
    25.02,                   !- N77
    25.02,                   !- N78
    25.02,                   !- N79
    25.02,                   !- N80
    25.02,                   !- N81
    25.02,                   !- N82
    25.02,                   !- N83
    25.02,                   !- N84
    25.02,                   !- N85
    25.02,                   !- N86
    25.02,                   !- N87
    25.02,                   !- N88
    25.02,                   !- N89
    25.02,                   !- N90
    25.02,                   !- N91
    25.02,                   !- N92
    25.02,                   !- N93
    25.02,                   !- N94
    25.02,                   !- N95
    25.02,                   !- N96
    25.02,                   !- N97
    25.02,                   !- N98
    25.02,                   !- N99
    25.02,                   !- N100
    25.02,                   !- N101
    25.02,                   !- N102
    25.02,                   !- N103
    25.02,                   !- N104
    25.02,                   !- N105
    25.02,                   !- N106
    25.02,                   !- N107
    25.02,                   !- N108
    25.02,                   !- N109
    25.02,                   !- N110
    25.02,                   !- N111
    25.02,                   !- N112
    25.02,                   !- N113
    25.02,                   !- N114
    25.02,                   !- N115
    25.02,                   !- N116
    25.02,                   !- N117
    25.02,                   !- N118
    25.02,                   !- N119
    25.02,                   !- N120
    25.02,                   !- N121
    25.02,                   !- N122
    25.02,                   !- N123
    25.02,                   !- N124
    25.02,                   !- N125
    25.02,                   !- N126
    25.02,                   !- N127
    25.02,                   !- N128
    25.02,                   !- N129
    25.02,                   !- N130
    25.02,                   !- N131
    25.02,                   !- N132
    25.02,                   !- N133
    25.02,                   !- N134
    25.02,                   !- N135
    25.02,                   !- N136
    25.02,                   !- N137
    25.02,                   !- N138
    25.02,                   !- N139
    25.02,                   !- N140
    25.02,                   !- N141
    25.02,                   !- N142
    25.02,                   !- N143
    25.02,                   !- N144
    25.02,                   !- N145
    25.02,                   !- N146
    25.02,                   !- N147
    25.02,                   !- N148
    25.02,                   !- N149
    25.02,                   !- N150
    25.02,                   !- N151
    25.02,                   !- N152
    25.02,                   !- N153
    25.02,                   !- N154
    25.02,                   !- N155
    25.02,                   !- N156
    25.02,                   !- N157
    25.02,                   !- N158
    25.02,                   !- N159
    25.02,                   !- N160
    25.02,                   !- N161
    25.02,                   !- N162
    25.02,                   !- N163
    25.02,                   !- N164
    25.02,                   !- N165
    25.02,                   !- N166
    25.02,                   !- N167
    25.02,                   !- N168
    25.02,                   !- N169
    25.02,                   !- N170
    25.02,                   !- N171
    25.02,                   !- N172
    25.02,                   !- N173
    25.02,                   !- N174
    25.02,                   !- N175
    25.02,                   !- N176
    25.02,                   !- N177
    25.02,                   !- N178
    25.02,                   !- N179
    25.02,                   !- N180
    25.02,                   !- N181
    25.02,                   !- N182
    25.02,                   !- N183
    25.02,                   !- N184
    25.02,                   !- N185
    25.02,                   !- N186
    25.02,                   !- N187
    25.02,                   !- N188
    25.02,                   !- N189
    25.02,                   !- N190
    25.02,                   !- N191
    25.02,                   !- N192
    25.02,                   !- N193
    25.02,                   !- N194
    25.02,                   !- N195
    25.02,                   !- N196
    25.02,                   !- N197
    25.02,                   !- N198
    25.02,                   !- N199
    25.02,                   !- N200
    25.02,                   !- N201
    25.02,                   !- N202
    25.02,                   !- N203
    25.02,                   !- N204
    25.02,                   !- N205
    25.02,                   !- N206
    25.02,                   !- N207
    25.02,                   !- N208
    25.02,                   !- N209
    25.02,                   !- N210
    25.02,                   !- N211
    25.02,                   !- N212
    25.02,                   !- N213
    25.02,                   !- N214
    25.02,                   !- N215
    25.02,                   !- N216
    25.02,                   !- N217
    25.02,                   !- N218
    25.02,                   !- N219
    25.02,                   !- N220
    25.02,                   !- N221
    25.02,                   !- N222
    25.02,                   !- N223
    25.02,                   !- N224
    25.02,                   !- N225
    25.02,                   !- N226
    25.02,                   !- N227
    25.02,                   !- N228
    25.02,                   !- N229
    25.02,                   !- N230
    25.02,                   !- N231
    25.02,                   !- N232
    25.02,                   !- N233
    25.02,                   !- N234
    25.02,                   !- N235
    25.02,                   !- N236
    25.02,                   !- N237
    25.02,                   !- N238
    25.02,                   !- N239
    25.02,                   !- N240
    25.02,                   !- N241
    25.02,                   !- N242
    25.02,                   !- N243
    25.02,                   !- N244
    25.02,                   !- N245
    25.02,                   !- N246
    25.02,                   !- N247
    25.02,                   !- N248
    25.02,                   !- N249
    25.02,                   !- N250
    25.02,                   !- N251
    25.02,                   !- N252
    25.02,                   !- N253
    25.02,                   !- N254
    25.02,                   !- N255
    25.02,                   !- N256
    25.02,                   !- N257
    25.02,                   !- N258
    25.02,                   !- N259
    25.02,                   !- N260
    25.02,                   !- N261
    25.02,                   !- N262
    25.02,                   !- N263
    25.02,                   !- N264
    25.02,                   !- N265
    25.02,                   !- N266
    25.02,                   !- N267
    25.02,                   !- N268
    25.02,                   !- N269
    25.02,                   !- N270
    25.02,                   !- N271
    25.02,                   !- N272
    25.02,                   !- N273
    25.02,                   !- N274
    25.02,                   !- N275
    25.02,                   !- N276
    25.02,                   !- N277
    25.02,                   !- N278
    25.02,                   !- N279
    25.02,                   !- N280
    25.02,                   !- N281
    25.02,                   !- N282
    25.02,                   !- N283
    25.02,                   !- N284
    25.02,                   !- N285
    25.02,                   !- N286
    25.02,                   !- N287
    25.02,                   !- N288
    25.02,                   !- N289
    25.02,                   !- N290
    25.02,                   !- N291
    25.02,                   !- N292
    25.02,                   !- N293
    25.02,                   !- N294
    25.02,                   !- N295
    25.02,                   !- N296
    25.02,                   !- N297
    25.02,                   !- N298
    25.02,                   !- N299
    25.02,                   !- N300
    25.02,                   !- N301
    25.02,                   !- N302
    25.02,                   !- N303
    25.02,                   !- N304
    25.02,                   !- N305
    25.02,                   !- N306
    25.02,                   !- N307
    25.02,                   !- N308
    25.02,                   !- N309
    25.02,                   !- N310
    25.02,                   !- N311
    25.02,                   !- N312
    25.02,                   !- N313
    25.02,                   !- N314
    25.02,                   !- N315
    25.02,                   !- N316
    25.02,                   !- N317
    25.02,                   !- N318
    25.02,                   !- N319
    25.02,                   !- N320
    25.02,                   !- N321
    25.02,                   !- N322
    25.02,                   !- N323
    25.02,                   !- N324
    25.02,                   !- N325
    25.02,                   !- N326
    25.02,                   !- N327
    25.02,                   !- N328
    25.02,                   !- N329
    25.02,                   !- N330
    25.02,                   !- N331
    25.02,                   !- N332
    25.02,                   !- N333
    25.02,                   !- N334
    25.02,                   !- N335
    25.02,                   !- N336
    25.02,                   !- N337
    25.02,                   !- N338
    25.02,                   !- N339
    25.02,                   !- N340
    25.02,                   !- N341
    25.02,                   !- N342
    25.02,                   !- N343
    25.02,                   !- N344
    25.02,                   !- N345
    25.02,                   !- N346
    25.02,                   !- N347
    25.02,                   !- N348
    25.02,                   !- N349
    25.02,                   !- N350
    25.02,                   !- N351
    25.02,                   !- N352
    25.02,                   !- N353
    25.02,                   !- N354
    25.02,                   !- N355
    25.02,                   !- N356
    25.02,                   !- N357
    25.02,                   !- N358
    25.02,                   !- N359
    25.02,                   !- N360
    25.02,                   !- N361
    25.02,                   !- N362
    25.02,                   !- N363
    25.02,                   !- N364
    25.02,                   !- N365
    25.02,                   !- N366
    25.02,                   !- N367
    25.02,                   !- N368
    25.02,                   !- N369
    25.02,                   !- N370
    25.02,                   !- N371
    25.02,                   !- N372
    25.02,                   !- N373
    25.02,                   !- N374
    25.02,                   !- N375
    25.02,                   !- N376
    25.02,                   !- N377
    25.02,                   !- N378
    25.02,                   !- N379
    25.02,                   !- N380
    25.02,                   !- N381
    25.02,                   !- N382
    25.02,                   !- N383
    25.02,                   !- N384
    25.02,                   !- N385
    25.02,                   !- N386
    25.02,                   !- N387
    25.02,                   !- N388
    25.02,                   !- N389
    25.02,                   !- N390
    25.02,                   !- N391
    25.02,                   !- N392
    25.02,                   !- N393
    25.02,                   !- N394
    25.02,                   !- N395
    25.02,                   !- N396
    25.02,                   !- N397
    25.02,                   !- N398
    25.02,                   !- N399
    25.02,                   !- N400
    25.02,                   !- N401
    25.02,                   !- N402
    25.02,                   !- N403
    25.02,                   !- N404
    25.02,                   !- N405
    25.02,                   !- N406
    25.02,                   !- N407
    25.02,                   !- N408
    25.02,                   !- N409
    25.02,                   !- N410
    25.02,                   !- N411
    25.02,                   !- N412
    25.02,                   !- N413
    25.02,                   !- N414
    25.02,                   !- N415
    25.02,                   !- N416
    25.02,                   !- N417
    25.02,                   !- N418
    25.02,                   !- N419
    25.02,                   !- N420
    25.02,                   !- N421
    25.02,                   !- N422
    25.02,                   !- N423
    25.02,                   !- N424
    25.02,                   !- N425
    25.02,                   !- N426
    25.02,                   !- N427
    25.02,                   !- N428
    25.02,                   !- N429
    25.02,                   !- N430
    25.02,                   !- N431
    25.02,                   !- N432
    25.02,                   !- N433
    25.02,                   !- N434
    25.02,                   !- N435
    25.02,                   !- N436
    25.02,                   !- N437
    25.02,                   !- N438
    25.02,                   !- N439
    25.02,                   !- N440
    25.02,                   !- N441
    25.02,                   !- N442
    25.02,                   !- N443
    25.02,                   !- N444
    25.02,                   !- N445
    25.02,                   !- N446
    25.02,                   !- N447
    25.02,                   !- N448
    25.02,                   !- N449
    25.02,                   !- N450
    25.02,                   !- N451
    25.02,                   !- N452
    25.02,                   !- N453
    25.02,                   !- N454
    25.02,                   !- N455
    25.02,                   !- N456
    25.02,                   !- N457
    25.02,                   !- N458
    25.02,                   !- N459
    25.02,                   !- N460
    25.02,                   !- N461
    25.02,                   !- N462
    25.02,                   !- N463
    25.02,                   !- N464
    25.02,                   !- N465
    25.02,                   !- N466
    25.02,                   !- N467
    25.02,                   !- N468
    25.02,                   !- N469
    25.02,                   !- N470
    25.02,                   !- N471
    25.02,                   !- N472
    25.02,                   !- N473
    25.02,                   !- N474
    25.02,                   !- N475
    25.02,                   !- N476
    25.02,                   !- N477
    25.02,                   !- N478
    25.02,                   !- N479
    25.02,                   !- N480
    25.02;                   !- N481

Schedule:Day:List,
    outside face daily_6,    !- Name
    Number,                  !- Schedule Type Limits Name
    No,                      !- Interpolate to Timestep
    10,                      !- Minutes per Item
    26.3,                    !- Value 1
    26.5611034405395,        !- N3
    26.8211387887888,        !- N4
    27.0796110526833,        !- N5
    27.3360282155778,        !- N6
    27.5899021728292,        !- N7
    27.8407496609304,        !- N8
    28.0880931774307,        !- N9
    28.3314618898883,        !- N10
    28.5703925321268,        !- N11
    28.8044302860889,        !- N12
    29.033129647608,         !- N13
    29.2560552744511,        !- N14
    29.4727828150171,        !- N15
    29.6828997161147,        !- N16
    29.8860060082804,        !- N17
    30.0817150671431,        !- N18
    30.2696543493861,        !- N19
    30.4494661019036,        !- N20
    30.6208080428051,        !- N21
    30.7833540129675,        !- N22
    30.9367945968982,        !- N23
    31.0808377117247,        !- N24
    31.2152091631909,        !- N25
    31.3396531676019,        !- N26
    31.4539328387223,        !- N27
    31.5578306387029,        !- N28
    31.6511487921763,        !- N29
    31.7337096627335,        !- N30
    31.8053560910649,        !- N31
    31.8659516941221,        !- N32
    31.9153811247307,        !- N33
    31.95355029116,          !- N34
    31.9803865362324,        !- N35
    31.9958387756302,        !- N36
    31.9998775951374,        !- N37
    31.9924953066315,        !- N38
    31.9737059627182,        !- N39
    31.9435453299816,        !- N40
    31.9020708209004,        !- N41
    31.8493613845598,        !- N42
    31.7855173563678,        !- N43
    31.7106602670606,        !- N44
    31.6249326113623,        !- N45
    31.5284975767381,        !- N46
    31.4215387327572,        !- N47
    31.3042596816585,        !- N48
    31.1768836707812,        !- N49
    31.0396531676019,        !- N50
    30.8928293981828,        !- N51
    30.736691849914,         !- N52
    30.571537739493,         !- N53
    30.3976814471556,        !- N54
    30.2154539182357,        !- N55
    30.0252020331917,        !- N56
    29.8272879473,           !- N57
    29.6220884012717,        !- N58
    29.4099940041056,        !- N59
    29.1914084895413,        !- N60
    28.9667479475294,        !- N61
    28.7364400321804,        !- N62
    28.5009231477011,        !- N63
    28.2606456138669,        !- N64
    28.01606481262,          !- N65
    27.7676463174167,        !- N66
    27.5158630069817,        !- N67
    27.261194165157,         !- N68
    27.0041245685572,        !- N69
    26.7451435637705,        !- N70
    26.484744135859,         !- N71
    26.2234219699338,        !- N72
    25.9616745075904,        !- N73