!-Generator IDFEditor 1.51
!-Option SortedOrder

!-NOTE: All comments with '!-' are ignored by the IDFEditor and are generated automatically.
!-      Use '!' comments if they need to be retained when using the IDFEditor.


!-   ===========  ALL OBJECTS IN CLASS: VERSION ===========

! The 90.1 Prototype Building Models were developed by Pacific Northwest National Laboratory (PNNL),
! under contract with the U.S. Department of Energy (DOE).  These building models were derived from
! DOE’s Commercial Reference Building Models with modifications based on input from the ASHRAE Standard 90.1 committee,
! the Advanced Energy Design Guide series, and building industry experts.
! The prototypes models were developed to quantify energy saving impacts from
! newly published editions of ASHRAE Standard 90.1.  The basic building descriptions can be found in the Scorecards
! posted at this website.  Detailed descriptions of the prototype model development and addenda modeling
! strategies can be found in the following  reports:
! "Achieving 30% Goal: Energy and Cost Saving Analysis of ASHRAE/IES Standard 90.1-2010."
! "Enhancements to ASHRAE Standard 90.1 Prototype Building Models"
! "Energy Savings Analysis: ANSI/ASHRAE/IES Standard 90.1-2016"
! "ANSI/ASHRAE/IES Standard 90.1-2013 Determination of Energy Savings: Quantitative Analysis"
!
! BEGIN ECONOMIZER MAP
! Economizer Name, DX COIL Name
! PACU_VAV_bot_OA_Controller, PACU_VAV_bot_CoolC DXCoil
! PACU_VAV_mid_OA_Controller, PACU_VAV_mid_CoolC DXCoil
! PACU_VAV_top_OA_Controller, PACU_VAV_top_CoolC DXCoil
! END ECONOMIZER MAP
! WeatherFile:  USA_GA_Atlanta-Hartsfield.Jackson.Intl.AP.722190_TMY3.epw
! GPARM parameters as input:
!    Case = DOE.determination2016_OfficeMedium_STD2016_Memphis
!    weatherfile = USA_TN_Memphis_TMY2.epw
!    annual_run = yes
!    slab_gtp = Zone3A_nonres_R0_0ftV_OfficeMedium_Atlanta_STD2016.gtp
!    basement_tempt = OfficeMedium_STD2007_Memphis_bsmt.idf
!    avg_oa_tempt_ip = 61.88
!    maxdiff_oa_tempt_ip = 40.5
!    ext_wall_type = SteelFramedWall
!    nonres_ext_wall_ufactor = 0.437226251
!    roof_type = LightweightRoof
!    nonres_roof_ufactor = 0.221452257
!    roof_emissivity = 0.75
!    roof_solar_absorp = 0.45
!    nonres_window = Window_U_0.51_SHGC_0.25
!    economizer = DifferentialDryBulb
!    skip_economizer_control = No
!    sidelighting_control = yes_AY
!    LPD_office = 8.503489229
!    exterior_lights_watts = 0
!    exterior_lights_watts_a = 519.2
!    exterior_lights_watts_b = 375.7
!    avg_oa_tempt = 16.6
!    maxdiff_oa_tempt = 22.5
!    infil = 0.00056896
!    oa_flow_per_area = 0.000431773
!    SAT_reset_switch = No
!    SAT_reset_T = NA
!    door_infil = 0.678659786
!    frac_ofpk = 0.131
!    damper_sched = MinOA_Sched
!    economizer_lockout = NoLockout
!    heating_damper_act = Normal
!    add_ck_pacu_vav_bot = Yes
!    add_ck_pacu_vav_mid = Yes
!    add_ck_pacu_vav_top = Yes
!    core_bottom_mdp = 0.3
!    perimeter_bot_zn_1_mdp = 0.3
!    perimeter_bot_zn_2_mdp = 0.3
!    perimeter_bot_zn_3_mdp = 0.334280148578049
!    perimeter_bot_zn_4_mdp = 0.3
!    core_mid_mdp = 0.353221591973321
!    perimeter_mid_zn_1_mdp = 0.3
!    perimeter_mid_zn_2_mdp = 0.3
!    perimeter_mid_zn_3_mdp = 0.3
!    perimeter_mid_zn_4_mdp = 0.3
!    core_top_mdp = 0.343480515244453
!    perimeter_top_zn_1_mdp = 0.3
!    perimeter_top_zn_2_mdp = 0.3
!    perimeter_top_zn_3_mdp = 0.3
!    perimeter_top_zn_4_mdp = 0.3
!    pacu_vav_bot_oaf = 1.19508883333333
!    pacu_vav_mid_oaf = 1.19508883333333
!    pacu_vav_top_oaf = 1.19508883333333
!    BLDG_ELEVATORS_LIGHTS_FAN_SCH = ELEV_LIGHT_FAN_SCH_ADD_DF
!    BLDG_ELEVATORS_LIGHTS_FAN_POWER = 125
!    BLDG_EQUIP_SCH = BLDG_EQUIP_SCH_ADV
!    addendum_cd = 2016AS
!    pv_generator = no
!    pv_surface_area = 0
!    STD189_overhang = no
!    swh_et = 0.808039999
!    swh_ua = 7.561562668
!    ext_lgt_sch = Exterior_Lgt_ALWAYS_ON
!    PACU_VAV_bot_ERV = No
!    PACU_VAV_mid_ERV = No
!    PACU_VAV_top_ERV = No
!    LTG_SCH_SET = LTG_SET_STD2013
!    transformer_size = 45000
!    transformer_eff = 0.984
!    PACU_VAV_bot_ERV_power = 907.476237916664
!    PACU_VAV_mid_ERV_power = 907.476237916664
!    PACU_VAV_top_ERV_power = 907.476237916664
!    OA_BASED_OPTIMUM_START_EMS = yes
!    OPTIMUM_START_SF_DEPENDENT_EMS = no
!    wwr = 0.33
!    pipe_heat_loss = 1886.44
!    skip_EMSprogram = yes
!    HtgSetP_Sch_PACU_VAV_bot = HTGSETP_SCH_YES_OPTIMUM
!    HtgSetP_Sch_PACU_VAV_mid = HTGSETP_SCH_YES_OPTIMUM
!    HtgSetP_Sch_PACU_VAV_top = HTGSETP_SCH_YES_OPTIMUM
!    ClgSetP_Sch_PACU_VAV_bot = CLGSETP_SCH_YES_OPTIMUM
!    ClgSetP_Sch_PACU_VAV_mid = CLGSETP_SCH_YES_OPTIMUM
!    ClgSetP_Sch_PACU_VAV_top = CLGSETP_SCH_YES_OPTIMUM
!    Wfile_TMY3 = USA_GA_Atlanta-Hartsfield.Jackson.Intl.AP.722190_TMY3.epw
!    loadProfile = No
!    receptacle_ctrl_occ_reduction_frac = 0.95308699
!    receptacle_ctrl_unocc_reduction_frac = 0.769184602
!    SHW_Pump_Head = 29891
!    CodeName = ASHRAE90.1_STD2016
!    CZ_City_Old = Memphis
!    CZ_Label = 3A
!    exterior_lights_watts_c = 4341.6
!    Addendum_AH = Yes
!    LPD_Ctrl = 0.02
!    con_swingdoor_r = 0.475963827
!====== Modifications===================
! This model uses a file schedule object(from .csv file) to define the setpoints, and this .csv file
!  is then modified in our optimization program.
Version,
    9.4;                     !- Version Identifier


!-   ===========  ALL OBJECTS IN CLASS: SIMULATIONCONTROL ===========

SimulationControl,
    Yes,                     !- Do Zone Sizing Calculation
    Yes,                     !- Do System Sizing Calculation
    Yes,                     !- Do Plant Sizing Calculation
    Yes,                     !- Run Simulation for Sizing Periods
    YES,                     !- Run Simulation for Weather File Run Periods
    No,                      !- Do HVAC Sizing Simulation for Sizing Periods
    1;                       !- Maximum Number of HVAC Sizing Simulation Passes


!-   ===========  ALL OBJECTS IN CLASS: BUILDING ===========

Building,
    Medium Office,           !- Name
    0.0000,                  !- North Axis {deg}
    City,                    !- Terrain
    0.0400,                  !- Loads Convergence Tolerance Value {W}
    0.2000,                  !- Temperature Convergence Tolerance Value {deltaC}
    FullInteriorAndExterior, !- Solar Distribution
    40,                      !- Maximum Number of Warmup Days
    6;                       !- Minimum Number of Warmup Days


!-   ===========  ALL OBJECTS IN CLASS: SHADOWCALCULATION ===========

ShadowCalculation,
    PolygonClipping,         !- Shading Calculation Method
    Periodic,                !- Shading Calculation Update Frequency Method
    30;                      !- Shading Calculation Update Frequency


!-   ===========  ALL OBJECTS IN CLASS: SURFACECONVECTIONALGORITHM:INSIDE ===========

SurfaceConvectionAlgorithm:Inside,
    TARP;                    !- Algorithm


!-   ===========  ALL OBJECTS IN CLASS: SURFACECONVECTIONALGORITHM:OUTSIDE ===========

SurfaceConvectionAlgorithm:Outside,
    TARP;                    !- Algorithm


!-   ===========  ALL OBJECTS IN CLASS: HEATBALANCEALGORITHM ===========

HeatBalanceAlgorithm,
    ConductionFiniteDifference;  !- Algorithm


!-   ===========  ALL OBJECTS IN CLASS: TIMESTEP ===========

Timestep,
    60;                      !- Number of Timesteps per Hour


!-   ===========  ALL OBJECTS IN CLASS: SITE:LOCATION ===========

! Location and design-day objects created by:
! Site:Location and design-day objects created by:
! /projects/bigsim/bin/ddy2idf /projects/bigsim/weather/EnergyPlus/tmy3.new/all/USA_GA_Atlanta-Hartsfield.Jackson.Intl.AP.722190_TMY3.ddy
!
Site:Location,
    Atlanta-Hartsfield.Jackson.Intl.AP_GA_USA WMO=722190,  !- Name
    33.64,                   !- Latitude {deg}
    -84.43,                  !- Longitude {deg}
    -5.00,                   !- Time Zone {hr}
    313.00;                  !- Elevation {m}


!-   ===========  ALL OBJECTS IN CLASS: SIZINGPERIOD:DESIGNDAY ===========

SizingPeriod:DesignDay,
    Atlanta-Hartsfield.Jackson.Intl.AP_GA_USA Ann Htg 99.6% Condns DB,  !- Name
    1,                       !- Month
    21,                      !- Day of Month
    WinterDesignDay,         !- Day Type
    -6.3,                    !- Maximum Dry-Bulb Temperature {C}
    0.0,                     !- Daily Dry-Bulb Temperature Range {deltaC}
    DefaultMultipliers,      !- Dry-Bulb Temperature Range Modifier Type
    ,                        !- Dry-Bulb Temperature Range Modifier Day Schedule Name
    Wetbulb,                 !- Humidity Condition Type
    -6.3,                    !- Wetbulb or DewPoint at Maximum Dry-Bulb {C}
    ,                        !- Humidity Condition Day Schedule Name
    ,                        !- Humidity Ratio at Maximum Dry-Bulb {kgWater/kgDryAir}
    ,                        !- Enthalpy at Maximum Dry-Bulb {J/kg}
    ,                        !- Daily Wet-Bulb Temperature Range {deltaC}
    97621.,                  !- Barometric Pressure {Pa}
    5.3,                     !- Wind Speed {m/s}
    320,                     !- Wind Direction {deg}
    No,                      !- Rain Indicator
    No,                      !- Snow Indicator
    No,                      !- Daylight Saving Time Indicator
    ASHRAEClearSky,          !- Solar Model Indicator
    ,                        !- Beam Solar Day Schedule Name
    ,                        !- Diffuse Solar Day Schedule Name
    ,                        !- ASHRAE Clear Sky Optical Depth for Beam Irradiance (taub) {dimensionless}
    ,                        !- ASHRAE Clear Sky Optical Depth for Diffuse Irradiance (taud) {dimensionless}
    0.00;                    !- Sky Clearness

SizingPeriod:DesignDay,
    Atlanta-Hartsfield.Jackson.Intl.AP_GA_USA Ann Clg .4% Condns DB=>MWB,  !- Name
    7,                       !- Month
    21,                      !- Day of Month
    SummerDesignDay,         !- Day Type
    34.4,                    !- Maximum Dry-Bulb Temperature {C}
    9.5,                     !- Daily Dry-Bulb Temperature Range {deltaC}
    DefaultMultipliers,      !- Dry-Bulb Temperature Range Modifier Type
    ,                        !- Dry-Bulb Temperature Range Modifier Day Schedule Name
    Wetbulb,                 !- Humidity Condition Type
    23.5,                    !- Wetbulb or DewPoint at Maximum Dry-Bulb {C}
    ,                        !- Humidity Condition Day Schedule Name
    ,                        !- Humidity Ratio at Maximum Dry-Bulb {kgWater/kgDryAir}
    ,                        !- Enthalpy at Maximum Dry-Bulb {J/kg}
    ,                        !- Daily Wet-Bulb Temperature Range {deltaC}
    97621.,                  !- Barometric Pressure {Pa}
    4,                       !- Wind Speed {m/s}
    300,                     !- Wind Direction {deg}
    No,                      !- Rain Indicator
    No,                      !- Snow Indicator
    No,                      !- Daylight Saving Time Indicator
    ASHRAETau,               !- Solar Model Indicator
    ,                        !- Beam Solar Day Schedule Name
    ,                        !- Diffuse Solar Day Schedule Name
    0.556,                   !- ASHRAE Clear Sky Optical Depth for Beam Irradiance (taub) {dimensionless}
    1.779;                   !- ASHRAE Clear Sky Optical Depth for Diffuse Irradiance (taud) {dimensionless}


!-   ===========  ALL OBJECTS IN CLASS: RUNPERIOD ===========

RunPeriod,
    RUNPERIOD 1,             !- Name
    7,              !- Begin Month
    1,              !- Begin Day of Month
    ,                        !- Begin Year
    7,                !- End Month
    2,                !- End Day of Month
    ,                        !- End Year
    Monday,                  !- Day of Week for Start Day
    No,                      !- Use Weather File Holidays and Special Days
    No,                      !- Use Weather File Daylight Saving Period
    No,                      !- Apply Weekend Holiday Rule
    Yes,                     !- Use Weather File Rain Indicators
    Yes;                     !- Use Weather File Snow Indicators


!-   ===========  ALL OBJECTS IN CLASS: RUNPERIODCONTROL:SPECIALDAYS ===========

! US National Holidays
RunPeriodControl:SpecialDays,
    New Years Day,           !- Name
    January 1,               !- Start Date
    1,                       !- Duration {days}
    Holiday;                 !- Special Day Type

RunPeriodControl:SpecialDays,
    Veterans Day,            !- Name
    November 11,             !- Start Date
    1,                       !- Duration {days}
    Holiday;                 !- Special Day Type

RunPeriodControl:SpecialDays,
    Christmas,               !- Name
    December 25,             !- Start Date
    1,                       !- Duration {days}
    Holiday;                 !- Special Day Type

RunPeriodControl:SpecialDays,
    Independence Day,        !- Name
    July 4,                  !- Start Date
    1,                       !- Duration {days}
    Holiday;                 !- Special Day Type

RunPeriodControl:SpecialDays,
    MLK Day,                 !- Name
    3rd Monday in January,   !- Start Date
    1,                       !- Duration {days}
    Holiday;                 !- Special Day Type

RunPeriodControl:SpecialDays,
    Presidents Day,          !- Name
    3rd Monday in February,  !- Start Date
    1,                       !- Duration {days}
    Holiday;                 !- Special Day Type

RunPeriodControl:SpecialDays,
    Memorial Day,            !- Name
    Last Monday in May,      !- Start Date
    1,                       !- Duration {days}
    Holiday;                 !- Special Day Type

RunPeriodControl:SpecialDays,
    Labor Day,               !- Name
    1st Monday in September, !- Start Date
    1,                       !- Duration {days}
    Holiday;                 !- Special Day Type

RunPeriodControl:SpecialDays,
    Columbus Day,            !- Name
    2nd Monday in October,   !- Start Date
    1,                       !- Duration {days}
    Holiday;                 !- Special Day Type

RunPeriodControl:SpecialDays,
    Thanksgiving,            !- Name
    4th Thursday in November,!- Start Date
    1,                       !- Duration {days}
    Holiday;                 !- Special Day Type


!-   ===========  ALL OBJECTS IN CLASS: SITE:GROUNDTEMPERATURE:BUILDINGSURFACE ===========

!
! Ground temperature object produced by /projects/bigsim/bin/gt2idf /projects/bigsim/comstd/_p.gtp/_p.gtp_copy_from_local/slab/output/Zone3A_nonres_R0_0ftV_OfficeMedium_Atlanta_STD2016.gtp
Site:GroundTemperature:BuildingSurface,
    20.52,                   !- January Ground Temperature {C}
    20.52,                   !- February Ground Temperature {C}
    20.65,                   !- March Ground Temperature {C}
    20.74,                   !- April Ground Temperature {C}
    20.84,                   !- May Ground Temperature {C}
    23.05,                   !- June Ground Temperature {C}
    23.45,                   !- July Ground Temperature {C}
    23.54,                   !- August Ground Temperature {C}
    23.52,                   !- September Ground Temperature {C}
    21.25,                   !- October Ground Temperature {C}
    20.85,                   !- November Ground Temperature {C}
    20.67;                   !- December Ground Temperature {C}


!-   ===========  ALL OBJECTS IN CLASS: SITE:WATERMAINSTEMPERATURE ===========

Site:WaterMainsTemperature,
    Correlation,             !- Calculation Method
    ,                        !- Temperature Schedule Name
    16.6,                    !- Annual Average Outdoor Air Temperature {C}
    22.5;                    !- Maximum Difference In Monthly Average Outdoor Air Temperatures {deltaC}


!-   ===========  ALL OBJECTS IN CLASS: SCHEDULETYPELIMITS ===========

ScheduleTypeLimits,
    Any Number;              !- Name

ScheduleTypeLimits,
    Fraction,                !- Name
    0.0,                     !- Lower Limit Value
    1.0,                     !- Upper Limit Value
    Continuous;              !- Numeric Type

ScheduleTypeLimits,
    Temperature,             !- Name
    -60,                     !- Lower Limit Value
    200,                     !- Upper Limit Value
    Continuous;              !- Numeric Type

ScheduleTypeLimits,
    On/Off,                  !- Name
    0,                       !- Lower Limit Value
    1,                       !- Upper Limit Value
    Discrete;                !- Numeric Type

ScheduleTypeLimits,
    Control Type,            !- Name
    0,                       !- Lower Limit Value
    4,                       !- Upper Limit Value
    Discrete;                !- Numeric Type

ScheduleTypeLimits,
    Humidity,                !- Name
    10,                      !- Lower Limit Value
    90,                      !- Upper Limit Value
    Continuous;              !- Numeric Type

ScheduleTypeLimits,
    Number;                  !- Name


!-   ===========  ALL OBJECTS IN CLASS: SCHEDULE:COMPACT ===========

Schedule:Compact,
    Exterior_lighting_schedule_a,  !- Name
    fraction,                !- Schedule Type Limits Name
    Through:12/31,           !- Field 1
    For:AllDays,             !- Field 2
    Until: 06:00,            !- Field 3
    0,                       !- Field 4
    Until: 24:00,            !- Field 5
    1;                       !- Field 6

Schedule:Compact,
    Exterior_lighting_schedule_b,  !- Name
    fraction,                !- Schedule Type Limits Name
    Through:12/31,           !- Field 1
    For:AllDays,             !- Field 2
    Until: 06:00,            !- Field 3
    0.7,                     !- Field 4
    Until: 24:00,            !- Field 5
    1;                       !- Field 6

Schedule:Compact,
    Exterior_lighting_schedule_a_IECC2015,  !- Name
    fraction,                !- Schedule Type Limits Name
    Through:12/31,           !- Field 1
    For:Weekdays SummerDesignDay,  !- Field 2
    Until: 07:00,            !- Field 3
    0,                       !- Field 4
    Until: 22:00,            !- Field 5
    1,                       !- Field 6
    Until: 24:00,            !- Field 7
    0,                       !- Field 8
    For:Saturdays,           !- Field 9
    Until: 07:00,            !- Field 10
    0,                       !- Field 11
    Until: 18:00,            !- Field 12
    1,                       !- Field 13
    Until: 24:00,            !- Field 14
    0,                       !- Field 15
    For:AllOtherDays,        !- Field 16
    Until: 24:00,            !- Field 17
    0;                       !- Field 18

!
Schedule:Compact,
    Exterior_lighting_schedule_b_2016,  !- Name
    fraction,                !- Schedule Type Limits Name
    Through:12/31,           !- Field 1
    For:AllDays,             !- Field 2
    Until: 06:00,            !- Field 3
    0.5,                     !- Field 4
    Until: 24:00,            !- Field 5
    1;                       !- Field 6

Schedule:Compact,
    Exterior_lighting_schedule_c_2016,  !- Name
    fraction,                !- Schedule Type Limits Name
    Through:12/31,           !- Field 1
    For:AllDays,             !- Field 2
    Until: 06:00,            !- Field 3
    0.5,                     !- Field 4
    Until: 19:00,            !- Field 5
    1,                       !- Field 6
    Until: 24:00,            !- Field 7
    0.5;                     !- Field 8

Schedule:Compact,
    Hours_of_operation,      !- Name
    on/off,                  !- Schedule Type Limits Name
    Through: 12/31,          !- Field 1
    For: Weekdays SummerDesignDay,  !- Field 2
    Until: 06:00,            !- Field 3
    0.0,                     !- Field 4
    Until: 22:00,            !- Field 5
    1.0,                     !- Field 6
    Until: 24:00,            !- Field 7
    0.0,                     !- Field 8
    For: Saturday WinterDesignDay,  !- Field 9
    Until: 06:00,            !- Field 10
    0.0,                     !- Field 11
    Until: 18:00,            !- Field 12
    1.0,                     !- Field 13
    Until: 24:00,            !- Field 14
    0.0,                     !- Field 15
    For:Sunday Holidays AllOtherDays,  !- Field 16
    Until: 24:00,            !- Field 17
    0.0;                     !- Field 18

Schedule:Compact,
    ALWAYS_ON,               !- Name
    Fraction,                !- Schedule Type Limits Name
    Through: 12/31,          !- Field 1
    For: AllDays,            !- Field 2
    Until: 24:00,            !- Field 3
    1.0;                     !- Field 4

Schedule:Compact,
    Exterior_Lgt_ALWAYS_ON,  !- Name
    Fraction,                !- Schedule Type Limits Name
    Through: 12/31,          !- Field 1
    For: AllDays,            !- Field 2
    Until: 24:00,            !- Field 3
    1;                       !- Field 4

Schedule:Compact,
    Exterior_Lgt_189_1,      !- Name
    Fraction,                !- Schedule Type Limits Name
    Through:12/31,           !- Field 1
    For:Weekdays,            !- Field 2
    Until:  9:00,            !- Field 3
    0.5,                     !- Field 4
    Until: 24:00,            !- Field 5
    1.0,                     !- Field 6
    For:Saturday,            !- Field 7
    Until:  9:00,            !- Field 8
    0.5,                     !- Field 9
    Until: 19:00,            !- Field 10
    1.0,                     !- Field 11
    Until: 24:00,            !- Field 12
    0.5,                     !- Field 13
    For:Sunday Holidays AllOtherDays,  !- Field 14
    Until:  9:00,            !- Field 15
    0.5,                     !- Field 16
    Until: 18:00,            !- Field 17
    1.0,                     !- Field 18
    Until: 24:00,            !- Field 19
    0.5;                     !- Field 20

Schedule:Compact,
    ALWAYS_OFF,              !- Name
    Fraction,                !- Schedule Type Limits Name
    Through: 12/31,          !- Field 1
    For: AllDays,            !- Field 2
    Until: 24:00,            !- Field 3
    0.0;                     !- Field 4

! Schedule Office HVAC Systems, ASHRAE 90.1-1989, Section 13
Schedule:Compact,
    HVACOperationSchd,       !- Name
    on/off,                  !- Schedule Type Limits Name
    Through: 12/31,          !- Field 1
    For: Weekdays SummerDesignDay,  !- Field 2
    Until: 06:00,            !- Field 3
    0.0,                     !- Field 4
    Until: 22:00,            !- Field 5
    1.0,                     !- Field 6
    Until: 24:00,            !- Field 7
    0.0,                     !- Field 8
    For: Saturday WinterDesignDay,  !- Field 9
    Until: 06:00,            !- Field 10
    0.0,                     !- Field 11
    Until: 18:00,            !- Field 12
    1.0,                     !- Field 13
    Until: 24:00,            !- Field 14
    0.0,                     !- Field 15
    For:Sunday Holidays AllOtherDays,  !- Field 16
    Until: 24:00,            !- Field 17
    0.0;                     !- Field 18

Schedule:Compact,
    RADHEATHIGHWATERTEMP_T2, !- Name
    TEMPERATURE,             !- Schedule Type Limits Name
    Through: 12/31,          !- Field 1
    For: Alldays,            !- Field 2
    Until: 24:00,            !- Field 3
    50.00;                   !- Field 4

Schedule:Compact,
    RADHEATLOWWATERTEMP_T2,  !- Name
    TEMPERATURE,             !- Schedule Type Limits Name
    Through: 12/31,          !- Field 1
    For: Alldays,            !- Field 2
    Until: 24:00,            !- Field 3
    30.00;                   !- Field 4

Schedule:Compact,
    RADHEATHIGHCONTROLTEMP_T2,  !- Name
    TEMPERATURE,             !- Schedule Type Limits Name
    Through: 12/31,          !- Field 1
    For: Alldays,            !- Field 2
    Until: 24:00,            !- Field 3
    19.00;                   !- Field 4

Schedule:Compact,
    RADHEATLOWCONTROLTEMP_T2,!- Name
    TEMPERATURE,             !- Schedule Type Limits Name
    Through: 12/31,          !- Field 1
    For: Alldays,            !- Field 2
    Until: 24:00,            !- Field 3
    15.00;                   !- Field 4

Schedule:Compact,
    RADCOOLHIGHWATERTEMP_T2, !- Name
    TEMPERATURE,             !- Schedule Type Limits Name
    Through: 12/31,          !- Field 1
    For: Alldays,            !- Field 2
    Until: 24:00,            !- Field 3
    12.00;                   !- Field 4

Schedule:Compact,
    RADCOOLLOWWATERTEMP_T2,  !- Name
    TEMPERATURE,             !- Schedule Type Limits Name
    Through: 12/31,          !- Field 1
    For: Alldays,            !- Field 2
    Until: 24:00,            !- Field 3
    7.00;                    !- Field 4

Schedule:Compact,
    RADCOOLHIGHCONTROLTEMP_T2,  !- Name
    TEMPERATURE,             !- Schedule Type Limits Name
    Through: 12/31,          !- Field 1
    For: Alldays,            !- Field 2
    Until: 24:00,            !- Field 3
    22.00;                   !- Field 4

Schedule:Compact,
    RADCOOLLOWCONTROLTEMP_T2,!- Name
    TEMPERATURE,             !- Schedule Type Limits Name
    Through: 12/31,          !- Field 1
    For: Alldays,            !- Field 2
    Until: 24:00,            !- Field 3
    20.00;                   !- Field 4

! Schedule Office Lighting,  ASHRAE 90.1-1989, Section 13 w/addenda
! lighting schedules for ASHRAE90.1-STD2004, ASHRAE90.1-2007
! lighting schedules for ASHRAE90.1-STD2010
! lighting schedules for IECC2006 / IECC2009
! lighting schedules for IECC2012
! lighting schedules for IECC2015
! lighting schedules for ASHRAE1891_2009
! lighting schedules for ASHRAE1891_2011
! lighting schedules for ASHRAE90.1-2013
Schedule:Compact,
    BLDG_LIGHT_SCH,          !- Name
    Fraction,                !- Schedule Type Limits Name
    Through: 12/31,          !- Field 1
    For: Weekdays,           !- Field 2
    Until: 5:00,             !- Field 3
    0.05,                    !- Field 4
    Until: 6:00,             !- Field 5
    0.1,                     !- Field 6
    Until: 7:00,             !- Field 7
    0.08623256,              !- Field 8
    Until: 8:00,             !- Field 9
    0.25869768,              !- Field 10
    Until: 17:00,            !- Field 11
    0.77609304,              !- Field 12
    Until: 18:00,            !- Field 13
    0.4311628,               !- Field 14
    Until: 20:00,            !- Field 15
    0.25869768,              !- Field 16
    Until: 22:00,            !- Field 17
    0.17246512,              !- Field 18
    Until: 23:00,            !- Field 19
    0.08623256,              !- Field 20
    Until: 24:00,            !- Field 21
    0.04311628,              !- Field 22
    For: SummerDesignDay,    !- Field 23
    Until: 24:00,            !- Field 24
    1,                       !- Field 25
    For: Saturday,           !- Field 26
    Until: 6:00,             !- Field 27
    0.05,                    !- Field 28
    Until: 8:00,             !- Field 29
    0.08623256,              !- Field 30
    Until: 12:00,            !- Field 31
    0.25869768,              !- Field 32
    Until: 17:00,            !- Field 33
    0.12934884,              !- Field 34
    Until: 19:00,            !- Field 35
    0.04311628,              !- Field 36
    Until: 24:00,            !- Field 37
    0.05,                    !- Field 38
    For: WinterDesignDay,    !- Field 39
    Until: 24:00,            !- Field 40
    0,                       !- Field 41
    For: Sunday Holidays AllOtherDays,  !- Field 42
    Until: 6:00,             !- Field 43
    0.05,                    !- Field 44
    Until: 18:00,            !- Field 45
    0.04311628,              !- Field 46
    Until: 24:00,            !- Field 47
    0.05;                    !- Field 48

! Schedule Office Receptacle,  ASHRAE 90.1-1989, Section 13
!
Schedule:Compact,
    BLDG_EQUIP_SCH,          !- Name
    Fraction,                !- Schedule Type Limits Name
    Through: 12/31,          !- Field 1
    For: Weekdays,           !- Field 2
    Until: 06:00,            !- Field 3
    0.3076738408,            !- Field 4
    Until: 08:00,            !- Field 5
    0.381234796,             !- Field 6
    Until: 12:00,            !- Field 7
    0.857778291,             !- Field 8
    Until: 13:00,            !- Field 9
    0.762469592,             !- Field 10
    Until: 17:00,            !- Field 11
    0.857778291,             !- Field 12
    Until: 18:00,            !- Field 13
    0.476543495,             !- Field 14
    Until: 24:00,            !- Field 15
    0.381234796,             !- Field 16
    For: SummerDesignDay,    !- Field 17
    Until: 24:00,            !- Field 18
    1.0,                     !- Field 19
    For: Saturday,           !- Field 20
    Until: 06:00,            !- Field 21
    0.2307553806,            !- Field 22
    Until: 08:00,            !- Field 23
    0.381234796,             !- Field 24
    Until: 12:00,            !- Field 25
    0.476543495,             !- Field 26
    Until: 17:00,            !- Field 27
    0.3335804465,            !- Field 28
    Until: 19:00,            !- Field 29
    0.285926097,             !- Field 30
    Until: 24:00,            !- Field 31
    0.2307553806,            !- Field 32
    For: WinterDesignDay,    !- Field 33
    Until: 24:00,            !- Field 34
    0.0,                     !- Field 35
    For: Sunday Holidays AllOtherDays,  !- Field 36
    Until: 06:00,            !- Field 37
    0.2307553806,            !- Field 38
    Until: 18:00,            !- Field 39
    0.285926097,             !- Field 40
    Until: 24:00,            !- Field 41
    0.2307553806;            !- Field 42

Schedule:Compact,
    BLDG_OCC_SCH,            !- Name
    Fraction,                !- Schedule Type Limits Name
    Through: 12/31,          !- Field 1
    For: Weekdays,           !- Field 2
    Until: 06:00,            !- Field 3
    0.0,                     !- Field 4
    Until: 07:00,            !- Field 5