!-Generator IDFEditor 1.51
!-Option SortedOrder

!-NOTE: All comments with '!-' are ignored by the IDFEditor and are generated automatically.
!-      Use '!' comments if they need to be retained when using the IDFEditor.


!-   ===========  ALL OBJECTS IN CLASS: VERSION ===========

!The DOE Prototype Building Models were developed by Pacific Northwest National Laboratory (PNNL), under contract with the U.S.
!Department of Energy (DOE).  These building models were derived from DOE's Commercial Reference Building Models with modifications
!based on input from the ASHRAE Standard 90.1 committee, the Advanced Energy Design Guide series, and building industry experts. The
!prototypes models were developed to quantify energy saving impacts from newly published editions of ASHRAE Standard 90.1, 189.1, IECC,
!and other energy codes and standards.  The basic building descriptions can be found in the Scorecards posted at www.energycodes.gov
!website. The recommended citation of the prototype models is
!
!DOE and PNNL. 2020. Commercial Prototype Building Models, Richland, WA, Pacific Northwest National Laboratory. Available at https://www.energycodes.gov/development/commercial/prototype_models.
!
!Detailed descriptions of the prototype model development and addenda modeling strategies can be found in the following  reports:
!DOE, 2020. Preliminary Energy Savings Analysis: ANSI/ASHRAE/IES Standard 90.1-2019. Report prepared by Zhang, J., M. Rosenberg, J.
!Lerond, Y. Xie, Nambia, C., Y. Chen, R. Hart, M. Halverson, D. Maddox, and S. Goel, Richland, WA, Pacific Northwest National Laboratory.
!
!Zhang, J., Y. Chen, Y. Xie, M. Rosenberg, R. Hart. Energy and Energy Cost Savings Analysis of the 2018 IECC for Commercial Buildings.
!2018. PNNL-28125. Richland, WA: Pacific Northwest National Laboratory.
!
!DOE. 2017. Energy Savings Analysis: ANSI/ASHRAE/IES Standard 90.1-2016. Prepared by Athalye, R.A, M.A. Halverson, M.I. Rosenberg, B. Liu,
!J. Zhang, R. Hart, V.V. Mendon, S. Goel, Y. Chen, Y. Xie, and M. Zhao, Richland, WA, Pacific Northwest National Laboratory. https://www.energycodes.gov/sites/default/files/documents/02202018_Standard_90.1-2016_Determination_TSD.pdf.
!
!Zhang, J., Y. Xie, R.A. Athalye, J. Zhuge, M. Rosenberg, R. Hart, and B. Liu. Energy and Energy Cost Savings Analysis of the 2015 IECC
!for Commercial Buildings. 2015. PNNL-24269 Rev. 1. Richland, WA: Pacific Northwest National
!Laboratory. https://www.energycodes.gov/sites/default/files/documents/2015_IECC_Commercial_Analysis.pdf.
!
!Halverson M.A., M.I. Rosenberg, W. Wang, J. Zhang, V.V. Mendon, R.A. Athalye, Y. Xie, R. Hart, S. Goel, 2014. ANSI/ASHRAE/IES Standard
!90.1-2013 Determination of Energy Savings: Quantitative Analysis, PNNL-23479. Richland, WA: Pacific Northwest National Laboratory. https://www.energycodes.gov/sites/default/files/documents/901-2013_finalCommercialDeterminationQuantitativeAnalysis_TSD_0.pdf.
!
!Goel S., R.A. Athalye, W. Wang, J. Zhang, M.I. Rosenberg, Y. Xie, and R. Hart, et al. 2014. Enhancements to ASHRAE Standard 90.1
!Prototype Building Models. PNNL-23269. Richland, WA: Pacific Northwest National Laboratory. https://www.pnnl.gov/main/publications/external/technical_reports/PNNL-23269.pdf.
!
!Zhang J., R.A. Athalye, R. Hart, M.I. Rosenberg, Y. Xie, S. Goel, and V.V. Mendon, et al. 2013. Energy and Energy Cost Savings Analysis
!of the IECC for Commercial Buildings. PNNL-22760. Richland, WA: Pacific Northwest National Laboratory. http://www.pnnl.gov/main/publications/external/technical_reports/PNNL-22760.pdf.
!
!Thornton B.A., M.I. Rosenberg, E.E. Richman, W. Wang, Y. Xie, J. Zhang, H. Cho, VV Mendon, R.A. Athalye, and B. Liu. 2011. Achieving
!the 30% Goal: Energy and Cost Savings Analysis of ASHRAE Standard 90.1-2010. PNNL-20405. Richland, WA: Pacific Northwest National
!Laboratory.  https://www.energycodes.gov/sites/default/files/documents/BECP_Energy_Cost_Savings_STD2010_May2011_v00.pdf.
!
!
! WeatherFile:  USA_FL_Tampa-MacDill.AFB.747880_TMY3.epw
! BEGIN ECONOMIZER MAP
! Economizer Name, DX COIL Name
! PACU_VAV_bot_OA_Controller, PACU_VAV_bot_CoolC DXCoil
! PACU_VAV_mid_OA_Controller, PACU_VAV_mid_CoolC DXCoil
! PACU_VAV_top_OA_Controller, PACU_VAV_top_CoolC DXCoil
! END ECONOMIZER MAP
! GPARM parameters as input:
!    Case = ASHRAE901_OfficeMedium_STD2019_Tampa
!    SelectedCase =
!    annual_run = yes
!    slab_gtp = National_OfficeMedium_ASHRAE901_STD2016_Zone2A_nonres_FL-Tampa-FL.gtp
!    basement_tempt = OfficeMedium_STD2007_Houston_bsmt.idf
!    avg_oa_tempt_ip = 71.33
!    maxdiff_oa_tempt_ip = 25.74
!    ext_wall_type = SteelFramedWall
!    nonres_ext_wall_ufactor = 0.476974092
!    roof_type = LightweightRoof
!    nonres_roof_ufactor = 0.221452257
!    roof_emissivity = 0.75
!    roof_solar_absorp = 0.45
!    nonres_window =
!    economizer = DifferentialDryBulb
!    skip_economizer_control = No
!    sidelighting_control = yes_AY
!    LPD_office = 6.888902667
!    exterior_lights_watts = 0
!    exterior_lights_watts_a = 519.2
!    exterior_lights_watts_b = 375.7
!    avg_oa_tempt = 21.85
!    maxdiff_oa_tempt = 14.3
!    infil = 0.00056896
!    oa_flow_per_area = 0.000431773
!    SAT_reset_switch = No
!    SAT_reset_T =
!    door_infil = 1.04300287
!    frac_ofpk = 0.144
!    damper_sched = MinOA_Sched
!    economizer_lockout = LockoutWithHeating
!    heating_damper_act = Normal
!    add_ck_pacu_vav_bot = Yes
!    add_ck_pacu_vav_mid = Yes
!    add_ck_pacu_vav_top = Yes
!    core_bottom_mdp = 0.3
!    perimeter_bot_zn_1_mdp = 0.3
!    perimeter_bot_zn_2_mdp = 0.3
!    perimeter_bot_zn_3_mdp = 0.3
!    perimeter_bot_zn_4_mdp = 0.3
!    core_mid_mdp = 0.3
!    perimeter_mid_zn_1_mdp = 0.3
!    perimeter_mid_zn_2_mdp = 0.3
!    perimeter_mid_zn_3_mdp = 0.3
!    perimeter_mid_zn_4_mdp = 0.3
!    core_top_mdp = 0.3
!    perimeter_top_zn_1_mdp = 0.3
!    perimeter_top_zn_2_mdp = 0.3
!    perimeter_top_zn_3_mdp = 0.3
!    perimeter_top_zn_4_mdp = 0.3
!    pacu_vav_bot_oaf = autosize
!    pacu_vav_mid_oaf = autosize
!    pacu_vav_top_oaf = autosize
!    BLDG_ELEVATORS_LIGHTS_FAN_SCH = ELEV_LIGHT_FAN_SCH_ADD_DF
!    BLDG_ELEVATORS_LIGHTS_FAN_POWER = 125
!    BLDG_EQUIP_SCH = BLDG_EQUIP_SCH_ADV
!    addendum_cd = 2016AS
!    pv_generator = no
!    pv_surface_area = 0
!    STD189_overhang = no
!    swh_et = 0.808039999
!    swh_ua = 7.561562668
!    ext_lgt_sch = Exterior_Lgt_ALWAYS_ON
!    PACU_VAV_bot_ERV = No
!    PACU_VAV_mid_ERV = No
!    PACU_VAV_top_ERV = No
!    LTG_SCH_SET = LTG_SET_STD2013
!    transformer_size = 45000
!    transformer_eff = 0.984
!    PACU_VAV_bot_ERV_power = 736.00175
!    PACU_VAV_mid_ERV_power = 736.00175
!    PACU_VAV_top_ERV_power = 736.00175
!    OA_BASED_OPTIMUM_START_EMS = yes
!    OPTIMUM_START_SF_DEPENDENT_EMS = no
!    wwr = 0.33
!    pipe_heat_loss = 1886.44
!    skip_EMSprogram = yes
!    HtgSetP_Sch_PACU_VAV_bot = HTGSETP_SCH_YES_OPTIMUM
!    HtgSetP_Sch_PACU_VAV_mid = HTGSETP_SCH_YES_OPTIMUM
!    HtgSetP_Sch_PACU_VAV_top = HTGSETP_SCH_YES_OPTIMUM
!    ClgSetP_Sch_PACU_VAV_bot = CLGSETP_SCH_YES_OPTIMUM
!    ClgSetP_Sch_PACU_VAV_mid = CLGSETP_SCH_YES_OPTIMUM
!    ClgSetP_Sch_PACU_VAV_top = CLGSETP_SCH_YES_OPTIMUM
!    Wfile_TMY3 = USA_FL_Tampa-MacDill.AFB.747880_TMY3.epw
!    loadProfile = No
!    receptacle_ctrl_occ_reduction_frac = 0.95308699
!    receptacle_ctrl_unocc_reduction_frac = 0.769184602
!    SHW_Pump_Head = 29891
!    CodeName = ASHRAE90.1_STD2019
!    CZ_City_Old = Houston
!    CZ_Label = 2A
!    exterior_lights_watts_c = 4341.6
!    Addendum_AH = Yes
!    LPD_Ctrl = 0.02
!    con_swingdoor_r = 0.475963827
!    office_standby_mode = Yes
!    nonres_window_u_factor = 0.46
!    nonres_window_shgc = 0.25
!    nonresLSG = 1.1
!    AnalysisPurpose = ProgressIndicator
!    AnalysisCodeName = ASHRAE901
!    AnalysisCodeYear = 2019
!    AnalysisAmendment = NoneAmend
!    AnalysisPrototype = OfficeMedium
!    AnalysisScope = National
!    AnalysisState = National
!    AnalysisClimateZone = 2A
!    AnalysisCity = USA_FL_Tampa
!    var_Ffactor_IP = 0.73
!    var_Cfactor_IP = 1.14
!    Core_ZN_SWH_flow = 3.57511e-06
! specify overhang_pf for 1891 codes
Version,
    9.3;                     !- Version Identifier


!-   ===========  ALL OBJECTS IN CLASS: SIMULATIONCONTROL ===========

SimulationControl,
    No,                      !- Do Zone Sizing Calculation
    No,                      !- Do System Sizing Calculation
    No,                      !- Do Plant Sizing Calculation
    No,                      !- Run Simulation for Sizing Periods
    YES;                     !- Run Simulation for Weather File Run Periods


!-   ===========  ALL OBJECTS IN CLASS: BUILDING ===========

Building,
    OfficeMedium,            !- Name
    0.0000,                  !- North Axis {deg}
    City,                    !- Terrain
    0.0400,                  !- Loads Convergence Tolerance Value {W}
    0.2000,                  !- Temperature Convergence Tolerance Value {deltaC}
    FullInteriorAndExterior, !- Solar Distribution
    25,                      !- Maximum Number of Warmup Days
    6;                       !- Minimum Number of Warmup Days


!-   ===========  ALL OBJECTS IN CLASS: SHADOWCALCULATION ===========

ShadowCalculation,
    PolygonClipping,         !- Shading Calculation Method
    Periodic,                !- Shading Calculation Update Frequency Method
    30;                      !- Shading Calculation Update Frequency


!-   ===========  ALL OBJECTS IN CLASS: SURFACECONVECTIONALGORITHM:INSIDE ===========

SurfaceConvectionAlgorithm:Inside,
    TARP;                    !- Algorithm


!-   ===========  ALL OBJECTS IN CLASS: SURFACECONVECTIONALGORITHM:OUTSIDE ===========

SurfaceConvectionAlgorithm:Outside,
    TARP;                    !- Algorithm


!-   ===========  ALL OBJECTS IN CLASS: HEATBALANCEALGORITHM ===========

HeatBalanceAlgorithm,
    ConductionTransferFunction;  !- Algorithm


!-   ===========  ALL OBJECTS IN CLASS: TIMESTEP ===========

Timestep,
    20;                      !- Number of Timesteps per Hour


!-   ===========  ALL OBJECTS IN CLASS: CONVERGENCELIMITS ===========

ConvergenceLimits,
    1,                       !- Minimum System Timestep {minutes}
    20;                      !- Maximum HVAC Iterations


!-   ===========  ALL OBJECTS IN CLASS: SITE:LOCATION ===========

Site:Location,
    Houston Bush Intercontinental_TX_USA Design_Conditions,  !- Name
    30.00,                   !- Latitude {deg}
    -95.37,                  !- Longitude {deg}
    -6.00,                   !- Time Zone {hr}
    29.00; 
    

!-   ===========  ALL OBJECTS IN CLASS: SIZINGPERIOD:DESIGNDAY ===========

SizingPeriod:DesignDay,
    New.York-John.F.Kennedy.Intl.AP_NY_USA Ann Htg 99.6% Condns DB,  !- Name
    1,                       !- Month
    21,                      !- Day of Month
    WinterDesignDay,         !- Day Type
    -10.7,                   !- Maximum Dry-Bulb Temperature {C}
    0.0,                     !- Daily Dry-Bulb Temperature Range {deltaC}
    DefaultMultipliers,      !- Dry-Bulb Temperature Range Modifier Type
    ,                        !- Dry-Bulb Temperature Range Modifier Day Schedule Name
    Wetbulb,                 !- Humidity Condition Type
    -10.7,                   !- Wetbulb or DewPoint at Maximum Dry-Bulb {C}
    ,                        !- Humidity Condition Day Schedule Name
    ,                        !- Humidity Ratio at Maximum Dry-Bulb {kgWater/kgDryAir}
    ,                        !- Enthalpy at Maximum Dry-Bulb {J/kg}
    ,                        !- Daily Wet-Bulb Temperature Range {deltaC}
    101241.,                 !- Barometric Pressure {Pa}
    7.5,                     !- Wind Speed {m/s}
    320,                     !- Wind Direction {deg}
    No,                      !- Rain Indicator
    No,                      !- Snow Indicator
    No,                      !- Daylight Saving Time Indicator
    ASHRAEClearSky,          !- Solar Model Indicator
    ,                        !- Beam Solar Day Schedule Name
    ,                        !- Diffuse Solar Day Schedule Name
    ,                        !- ASHRAE Clear Sky Optical Depth for Beam Irradiance (taub) {dimensionless}
    ,                        !- ASHRAE Clear Sky Optical Depth for Diffuse Irradiance (taud) {dimensionless}
    0.00;                    !- Sky Clearness

SizingPeriod:DesignDay,
    New.York-John.F.Kennedy.Intl.AP_NY_USA Ann Clg .4% Condns DB=>MWB,  !- Name
    7,                       !- Month
    21,                      !- Day of Month
    SummerDesignDay,         !- Day Type
    32.1,                    !- Maximum Dry-Bulb Temperature {C}
    7.4,                     !- Daily Dry-Bulb Temperature Range {deltaC}
    DefaultMultipliers,      !- Dry-Bulb Temperature Range Modifier Type
    ,                        !- Dry-Bulb Temperature Range Modifier Day Schedule Name
    Wetbulb,                 !- Humidity Condition Type
    23.1,                    !- Wetbulb or DewPoint at Maximum Dry-Bulb {C}
    ,                        !- Humidity Condition Day Schedule Name
    ,                        !- Humidity Ratio at Maximum Dry-Bulb {kgWater/kgDryAir}
    ,                        !- Enthalpy at Maximum Dry-Bulb {J/kg}
    ,                        !- Daily Wet-Bulb Temperature Range {deltaC}
    101241.,                 !- Barometric Pressure {Pa}
    5.6,                     !- Wind Speed {m/s}
    230,                     !- Wind Direction {deg}
    No,                      !- Rain Indicator
    No,                      !- Snow Indicator
    No,                      !- Daylight Saving Time Indicator
    ASHRAETau,               !- Solar Model Indicator
    ,                        !- Beam Solar Day Schedule Name
    ,                        !- Diffuse Solar Day Schedule Name
    0.541,                   !- ASHRAE Clear Sky Optical Depth for Beam Irradiance (taub) {dimensionless}
    1.800;                   !- ASHRAE Clear Sky Optical Depth for Diffuse Irradiance (taud) {dimensionless}


!-   ===========  ALL OBJECTS IN CLASS: RUNPERIOD ===========

RunPeriod,
    RUNPERIOD 1,             !- Name
    %BeginMon%,                       !- Begin Month
    %BeginDay%,                      !- Begin Day of Month
    ,                        !- Begin Year
    %EndMon%,                       !- End Month
    %EndDay%,                      !- End Day of Month
    ,                        !- End Year
    Monday,                  !- Day of Week for Start Day
    No,                      !- Use Weather File Holidays and Special Days
    No,                      !- Use Weather File Daylight Saving Period
    No,                      !- Apply Weekend Holiday Rule
    Yes,                     !- Use Weather File Rain Indicators
    Yes;                     !- Use Weather File Snow Indicators


!-   ===========  ALL OBJECTS IN CLASS: RUNPERIODCONTROL:SPECIALDAYS ===========

RunPeriodControl:SpecialDays,
    New Years Day,           !- Name
    January 1,               !- Start Date
    1,                       !- Duration {days}
    Holiday;                 !- Special Day Type

RunPeriodControl:SpecialDays,
    Veterans Day,            !- Name
    November 11,             !- Start Date
    1,                       !- Duration {days}
    Holiday;                 !- Special Day Type

RunPeriodControl:SpecialDays,
    Christmas,               !- Name
    December 25,             !- Start Date
    1,                       !- Duration {days}
    Holiday;                 !- Special Day Type

RunPeriodControl:SpecialDays,
    Independence Day,        !- Name
    July 4,                  !- Start Date
    1,                       !- Duration {days}
    Holiday;                 !- Special Day Type

RunPeriodControl:SpecialDays,
    MLK Day,                 !- Name
    3rd Monday in January,   !- Start Date
    1,                       !- Duration {days}
    Holiday;                 !- Special Day Type

RunPeriodControl:SpecialDays,
    Presidents Day,          !- Name
    3rd Monday in February,  !- Start Date
    1,                       !- Duration {days}
    Holiday;                 !- Special Day Type

RunPeriodControl:SpecialDays,
    Memorial Day,            !- Name
    Last Monday in May,      !- Start Date
    1,                       !- Duration {days}
    Holiday;                 !- Special Day Type

RunPeriodControl:SpecialDays,
    Labor Day,               !- Name
    1st Monday in September, !- Start Date
    1,                       !- Duration {days}
    Holiday;                 !- Special Day Type

RunPeriodControl:SpecialDays,
    Columbus Day,            !- Name
    2nd Monday in October,   !- Start Date
    1,                       !- Duration {days}
    Holiday;                 !- Special Day Type

RunPeriodControl:SpecialDays,
    Thanksgiving,            !- Name
    4th Thursday in November,!- Start Date
    1,                       !- Duration {days}
    Holiday;                 !- Special Day Type


!-   ===========  ALL OBJECTS IN CLASS: SITE:GROUNDTEMPERATURE:BUILDINGSURFACE ===========

Site:GroundTemperature:BuildingSurface,
    20.93,                   !- January Ground Temperature {C}
    20.91,                   !- February Ground Temperature {C}
    20.89,                   !- March Ground Temperature {C}
    20.89,                   !- April Ground Temperature {C}
    20.89,                   !- May Ground Temperature {C}
    23.27,                   !- June Ground Temperature {C}
    23.65,                   !- July Ground Temperature {C}
    23.72,                   !- August Ground Temperature {C}
    23.75,                   !- September Ground Temperature {C}
    21.32,                   !- October Ground Temperature {C}
    21.02,                   !- November Ground Temperature {C}
    20.97;                   !- December Ground Temperature {C}


!-   ===========  ALL OBJECTS IN CLASS: SITE:GROUNDTEMPERATURE:FCFACTORMETHOD ===========

!
!
!
! Site:GroundTemperature:BuildingSurface,
!     20.93,                   !- January Ground Temperature {C}
!     20.91,                   !- February Ground Temperature {C}
!     20.89,                   !- March Ground Temperature {C}
!     20.89,                   !- April Ground Temperature {C}
!     20.89,                   !- May Ground Temperature {C}
!     23.27,                   !- June Ground Temperature {C}
!     23.65,                   !- July Ground Temperature {C}
!     23.72,                   !- August Ground Temperature {C}
!     23.75,                   !- September Ground Temperature {C}
!     21.32,                   !- October Ground Temperature {C}
!     21.02,                   !- November Ground Temperature {C}
!     20.97;                   !- December Ground Temperature {C}
Site:GroundTemperature:FCfactorMethod,
    14.0,                    !- January Ground Temperature {C}
    7.3,                     !- February Ground Temperature {C}
    3.3,                     !- March Ground Temperature {C}
    1.2,                     !- April Ground Temperature {C}
    -0.2,                    !- May Ground Temperature {C}
    5.6,                     !- June Ground Temperature {C}
    10.9,                    !- July Ground Temperature {C}
    16.1,                    !- August Ground Temperature {C}
    21.7,                    !- September Ground Temperature {C}
    25.0,                    !- October Ground Temperature {C}
    24.8,                    !- November Ground Temperature {C}
    19.9;                    !- December Ground Temperature {C}


!-   ===========  ALL OBJECTS IN CLASS: SITE:WATERMAINSTEMPERATURE ===========

Site:WaterMainsTemperature,
    Correlation,             !- Calculation Method
    ,                        !- Temperature Schedule Name
    12.4666666666667,        !- Annual Average Outdoor Air Temperature {C}
    25.2;                    !- Maximum Difference In Monthly Average Outdoor Air Temperatures {deltaC}


!-   ===========  ALL OBJECTS IN CLASS: SCHEDULETYPELIMITS ===========

ScheduleTypeLimits,
    Any Number;              !- Name

ScheduleTypeLimits,
    Fraction,                !- Name
    0.0,                     !- Lower Limit Value
    1.0,                     !- Upper Limit Value
    Continuous;              !- Numeric Type

ScheduleTypeLimits,
    Temperature,             !- Name
    -60,                     !- Lower Limit Value
    200,                     !- Upper Limit Value
    Continuous;              !- Numeric Type

ScheduleTypeLimits,
    On/Off,                  !- Name
    0,                       !- Lower Limit Value
    1,                       !- Upper Limit Value
    Discrete;                !- Numeric Type

ScheduleTypeLimits,
    Control Type,            !- Name
    0,                       !- Lower Limit Value
    4,                       !- Upper Limit Value
    Discrete;                !- Numeric Type

ScheduleTypeLimits,
    Humidity,                !- Name
    10,                      !- Lower Limit Value
    90,                      !- Upper Limit Value
    Continuous;              !- Numeric Type

ScheduleTypeLimits,
    Number;                  !- Name


!-   ===========  ALL OBJECTS IN CLASS: SCHEDULE:COMPACT ===========

Schedule:Compact,
    Exterior_lighting_schedule_a,  !- Name
    fraction,                !- Schedule Type Limits Name
    Through:12/31,           !- Field 1
    For:AllDays,             !- Field 2
    Until: 06:00,            !- Field 3
    0,                       !- Field 4
    Until: 24:00,            !- Field 5
    1;                       !- Field 6

Schedule:Compact,
    Exterior_lighting_schedule_b,  !- Name
    fraction,                !- Schedule Type Limits Name
    Through:12/31,           !- Field 1
    For:AllDays,             !- Field 2
    Until: 06:00,            !- Field 3
    0.7,                     !- Field 4
    Until: 24:00,            !- Field 5
    1;                       !- Field 6

Schedule:Compact,
    Exterior_lighting_schedule_a_IECC2015,  !- Name
    fraction,                !- Schedule Type Limits Name
    Through:12/31,           !- Field 1
    For:Weekdays SummerDesignDay,  !- Field 2
    Until: 07:00,            !- Field 3
    0,                       !- Field 4
    Until: 22:00,            !- Field 5
    1,                       !- Field 6
    Until: 24:00,            !- Field 7
    0,                       !- Field 8
    For:Saturdays,           !- Field 9
    Until: 07:00,            !- Field 10
    0,                       !- Field 11
    Until: 18:00,            !- Field 12
    1,                       !- Field 13
    Until: 24:00,            !- Field 14
    0,                       !- Field 15
    For:AllOtherDays,        !- Field 16
    Until: 24:00,            !- Field 17
    0;                       !- Field 18

Schedule:Compact,
    Exterior_lighting_schedule_b_2016,  !- Name
    fraction,                !- Schedule Type Limits Name
    Through:12/31,           !- Field 1
    For:AllDays,             !- Field 2
    Until: 06:00,            !- Field 3
    0.5,                     !- Field 4
    Until: 24:00,            !- Field 5
    1;                       !- Field 6

Schedule:Compact,
    Exterior_lighting_schedule_c_2016,  !- Name
    fraction,                !- Schedule Type Limits Name
    Through:12/31,           !- Field 1
    For:AllDays,             !- Field 2
    Until: 06:00,            !- Field 3
    0.5,                     !- Field 4
    Until: 19:00,            !- Field 5
    1,                       !- Field 6
    Until: 24:00,            !- Field 7
    0.5;                     !- Field 8

Schedule:Compact,
    Hours_of_operation,      !- Name
    on/off,                  !- Schedule Type Limits Name
    Through: 12/31,          !- Field 1
    For: Weekdays SummerDesignDay,  !- Field 2
    Until: 06:00,            !- Field 3
    0.0,                     !- Field 4
    Until: 22:00,            !- Field 5
    1.0,                     !- Field 6
    Until: 24:00,            !- Field 7
    0.0,                     !- Field 8
    For: Saturday WinterDesignDay,  !- Field 9
    Until: 06:00,            !- Field 10
    0.0,                     !- Field 11
    Until: 18:00,            !- Field 12
    1.0,                     !- Field 13
    Until: 24:00,            !- Field 14
    0.0,                     !- Field 15
    For:Sunday Holidays AllOtherDays,  !- Field 16
    Until: 24:00,            !- Field 17
    0.0;                     !- Field 18

Schedule:Compact,
    ALWAYS_ON,               !- Name
    Fraction,                !- Schedule Type Limits Name
    Through: 12/31,          !- Field 1
    For: AllDays,            !- Field 2
    Until: 24:00,            !- Field 3
    1.0;                     !- Field 4

Schedule:Compact,
    Exterior_Lgt_ALWAYS_ON,  !- Name
    Fraction,                !- Schedule Type Limits Name
    Through: 12/31,          !- Field 1
    For: AllDays,            !- Field 2
    Until: 24:00,            !- Field 3
    1;                       !- Field 4

Schedule:Compact,
    Exterior_Lgt_189_1,      !- Name
    Fraction,                !- Schedule Type Limits Name
    Through:12/31,           !- Field 1
    For:Weekdays,            !- Field 2
    Until:  9:00,            !- Field 3
    0.5,                     !- Field 4
    Until: 24:00,            !- Field 5
    1.0,                     !- Field 6
    For:Saturday,            !- Field 7
    Until:  9:00,            !- Field 8
    0.5,                     !- Field 9
    Until: 19:00,            !- Field 10
    1.0,                     !- Field 11
    Until: 24:00,            !- Field 12
    0.5,                     !- Field 13
    For:Sunday Holidays AllOtherDays,  !- Field 14
    Until:  9:00,            !- Field 15
    0.5,                     !- Field 16
    Until: 18:00,            !- Field 17
    1.0,                     !- Field 18
    Until: 24:00,            !- Field 19
    0.5;                     !- Field 20

Schedule:Compact,
    ALWAYS_OFF,              !- Name
    Fraction,                !- Schedule Type Limits Name
    Through: 12/31,          !- Field 1
    For: AllDays,            !- Field 2
    Until: 24:00,            !- Field 3
    0.0;                     !- Field 4

Schedule:Compact,
    HVACOperationSchd,       !- Name
    on/off,                  !- Schedule Type Limits Name
    Through: 12/31,          !- Field 1
    For: Weekdays Weekends Holidays SummerDesignDay,  !- Field 2
    Until: 06:00,            !- Field 3
    0.0,                     !- Field 4
    Until: 22:00,            !- Field 5
    1.0,                     !- Field 6
    Until: 24:00,            !- Field 7
    0.0,                     !- Field 8
    For: WinterDesignDay,    !- Field 9
    Until: 06:00,            !- Field 10
    0.0,                     !- Field 11
    Until: 18:00,            !- Field 12
    1.0,                     !- Field 13
    Until: 24:00,            !- Field 14
    0.0,                     !- Field 15
    For: AllOtherDays,       !- Field 16
    Until: 24:00,            !- Field 17
    0.0;                     !- Field 18

Schedule:Compact,
    BLDG_LIGHT_SCH,          !- Name
    Fraction,                !- Schedule Type Limits Name
    Through: 12/31,          !- Field 1
    For: Weekdays,           !- Field 2
    Until: 5:00,             !- Field 3
    0.05,                    !- Field 4
    Until: 6:00,             !- Field 5
    0.1,                     !- Field 6
    Until: 7:00,             !- Field 7
    0.08623256,              !- Field 8
    Until: 8:00,             !- Field 9
    0.25869768,              !- Field 10
    Until: 17:00,            !- Field 11
    0.77609304,              !- Field 12
    Until: 18:00,            !- Field 13
    0.4311628,               !- Field 14
    Until: 20:00,            !- Field 15
    0.25869768,              !- Field 16
    Until: 22:00,            !- Field 17
    0.17246512,              !- Field 18
    Until: 23:00,            !- Field 19
    0.08623256,              !- Field 20
    Until: 24:00,            !- Field 21
    0.04311628,              !- Field 22
    For: SummerDesignDay,    !- Field 23
    Until: 24:00,            !- Field 24
    1,                       !- Field 25
    For: Saturday,           !- Field 26
    Until: 6:00,             !- Field 27
    0.05,                    !- Field 28
    Until: 8:00,             !- Field 29
    0.08623256,              !- Field 30
    Until: 12:00,            !- Field 31
    0.25869768,              !- Field 32
    Until: 17:00,            !- Field 33
    0.12934884,              !- Field 34
    Until: 19:00,            !- Field 35
    0.04311628,              !- Field 36
    Until: 24:00,            !- Field 37
    0.05,                    !- Field 38
    For: WinterDesignDay,    !- Field 39
    Until: 24:00,            !- Field 40
    0,                       !- Field 41
    For: Sunday Holidays AllOtherDays,  !- Field 42
    Until: 6:00,             !- Field 43
    0.05,                    !- Field 44
    Until: 18:00,            !- Field 45
    0.04311628,              !- Field 46
    Until: 24:00,            !- Field 47
    0.05;                    !- Field 48

Schedule:Compact,
    BLDG_EQUIP_SCH,          !- Name
    Fraction,                !- Schedule Type Limits Name
    Through: 12/31,          !- Field 1
    For: Weekdays,           !- Field 2
    Until: 06:00,            !- Field 3
    0.3076738408,            !- Field 4
    Until: 08:00,            !- Field 5
    0.381234796,             !- Field 6
    Until: 12:00,            !- Field 7
    0.857778291,             !- Field 8
    Until: 13:00,            !- Field 9
    0.762469592,             !- Field 10
    Until: 17:00,            !- Field 11
    0.857778291,             !- Field 12
    Until: 18:00,            !- Field 13
    0.476543495,             !- Field 14
    Until: 24:00,            !- Field 15
    0.381234796,             !- Field 16